geometry optimzed in LAMMPS
_audit_creation_date              2020-11-30 
_audit_creation_method            'lammps2cif' 
_symmetry_space_group_name_H-M    'P1' 
_symmetry_Int_Tables_number       1 
_symmetry_cell_setting            triclinic 
loop_ 
_symmetry_equiv_pos_as_xyz 
  x,y,z 
_cell_length_a                    46.20947761 
_cell_length_b                    30.863421192236217 
_cell_length_c                    35.65511850331871 
_cell_angle_alpha                 93.33387288023073 
_cell_angle_beta                  94.62781543439849 
_cell_angle_gamma                 70.43497767504216 
loop_ 
_atom_site_label 
_atom_site_type_symbol 
_atom_site_fract_x 
_atom_site_fract_y 
_atom_site_fract_z 
_atom_site_charge 
O1          O  0.08744525  0.19844553  0.02350058    -0.79800
O2          O  0.44260554  0.22627673  0.00713963    -0.64500
O3          O  0.02286111  0.21549872  0.48972662    -1.11100
C4          C  0.99279816  0.37505706  0.49383394     1.07100
O5          O  0.41937499  0.29120943  0.48438046    -0.77700
O6          O  0.46396548  0.28612630  0.43693014    -0.65300
Ni7        Ni  0.05852391  0.16569097  0.02485628     1.34900
C8          C  0.49143640  0.27432627  0.42725382     0.85000
O9          O  0.49107930  0.15590970  0.98915508    -0.78300
O10         O  0.03527422  0.12435023  0.02780689    -0.88500
C11         C  0.41904747  0.25386139  0.49727374     0.85400
O12         O  0.04158865  0.20176343  0.06806098    -0.66700
O13         O  0.47329803  0.36184959  0.47582000    -0.86000
C14         C  0.01380716  0.21282302  0.07640243     0.86200
C15         C  0.51115647  0.12366821  0.00677963     1.07800
H16         H  0.47489487  0.29205136  0.03621778     0.39600
O17         O  0.47859359  0.28355626  0.01009167    -1.08700
O18         O  0.01046104  0.28885145  0.44716581    -0.65300
Ni19       Ni  0.01830436  0.27909256  0.50048035     1.26300
O20         O  0.49191832  0.21028046  0.05293594    -0.65600
O21         O  0.01258439  0.34230750  0.51119359    -0.77900
C22         C  0.08771191  0.23361782  0.00689932     0.85600
O23         O  0.06004330  0.27098722  0.49256581    -0.65000
Ni24       Ni  0.44911187  0.32197731  0.48089323     1.27400
Ni25       Ni  0.48420049  0.21954782  0.99955474     1.26100
H26         H  0.02645884  0.20694274  0.46358124     0.40100
O27         O  0.08279448  0.20701973  0.26699654    -0.79800
O28         O  0.44066129  0.22566440  0.25783701    -0.64500
O29         O  0.02245127  0.21699219  0.23989292    -1.11100
C30         C  0.98709607  0.37750910  0.24293479     1.07100
O31         O  0.41603743  0.29258672  0.23063870    -0.77700
O32         O  0.46114909  0.28987828  0.18474590    -0.65300
Ni33       Ni  0.05430635  0.17434785  0.27049317     1.34900
C34         C  0.48872524  0.27981797  0.17582906     0.85800
O35         O  0.48840911  0.15561715  0.23873651    -0.78300
O36         O  0.03164364  0.13260418  0.27556330    -0.88500
C37         C  0.41633158  0.25611564  0.24566445     0.85400
O38         O  0.03868128  0.21008248  0.31424062    -0.66700
O39         O  0.46774452  0.36696238  0.22438006    -0.86000
C40         C  0.01124134  0.22071646  0.32379089     0.86200
C41         C  0.50843248  0.12310001  0.25597175     1.07800
H42         H  0.47218341  0.29162191  0.28559629     0.39600
O43         O  0.47612874  0.28295822  0.25954445    -1.08700
O44         O  0.00836006  0.29016933  0.19651082    -0.65300
Ni45       Ni  0.01607091  0.28142254  0.24992135     1.26300
O46         O  0.49027755  0.20974081  0.30266852    -0.65600
O47         O  0.00812423  0.34549642  0.25976099    -0.77900
C48         C  0.08228569  0.24430258  0.25327356     0.85600
O49         O  0.05771637  0.27558932  0.24243578    -0.65000
Ni50       Ni  0.44474501  0.32541134  0.22832727     1.27400
Ni51       Ni  0.48193013  0.21901883  0.24930277     1.26100
H52         H  0.02612499  0.20830576  0.21379190     0.40100
O53         O  0.33621038  0.20121813  0.01812230    -0.79800
O54         O  0.19333211  0.22442005  0.00877275    -0.64500
O55         O  0.27441358  0.21353565  0.49108166    -1.11100
C56         C  0.24201428  0.37350858  0.49353660     1.07100
O57         O  0.16670231  0.29474650  0.48147992    -0.77700
O58         O  0.21178233  0.29066482  0.43503781    -0.65300
Ni59       Ni  0.30728630  0.16890376  0.02124549     1.34900
C60         C  0.23932153  0.27967476  0.42573416     0.85800
O61         O  0.24093796  0.15463733  0.98922305    -0.78300
O62         O  0.28392760  0.12781302  0.02588272    -0.88500
C63         C  0.16684552  0.25777355  0.49552951     0.85400
O64         O  0.29183590  0.20442744  0.06518972    -0.66700
O65         O  0.21933963  0.36748388  0.47387893    -0.86000
C66         C  0.26439344  0.21496753  0.07468896     0.86200
C67         C  0.26100858  0.12215449  0.00645502     1.07800
H68         H  0.22521468  0.29041120  0.03653067     0.39600
O69         O  0.22875306  0.28191940  0.01036663    -1.08700
O70         O  0.26093585  0.28602454  0.44733580    -0.65300
Ni71       Ni  0.26895991  0.27749964  0.50084723     1.26300
O72         O  0.24290225  0.20830686  0.05316512    -0.65600
O73         O  0.26234272  0.34114711  0.51070859    -0.77900
C74         C  0.33590033  0.23824059  0.00397578     0.85600
O75         O  0.31080464  0.27008450  0.49297502    -0.65000
Ni76       Ni  0.19590845  0.32669049  0.47854713     1.27400
Ni77       Ni  0.23443144  0.21797217  0.99992839     1.26100
H78         H  0.27841708  0.20449749  0.46510083     0.40100
O79         O  0.33426685  0.19999676  0.26871734    -0.79800
O80         O  0.18999167  0.22718074  0.25656161    -0.64500
O81         O  0.27368307  0.21206613  0.24079716    -1.11100
C82         C  0.24261582  0.37163291  0.24344664     1.07100
O83         O  0.16669690  0.29469500  0.22946377    -0.77700
O84         O  0.21270284  0.28886864  0.18396684    -0.65300
Ni85       Ni  0.30471098  0.16889889  0.27186434     1.34900
C86         C  0.24042816  0.27809131  0.17546508     0.85800
O87         O  0.23827764  0.15532402  0.23919396    -0.78300
O88         O  0.28083365  0.12885345  0.27670287    -0.88500
C89         C  0.16605855  0.25867228  0.24435258     0.85400
O90         O  0.28891409  0.20540274  0.31518494    -0.66700
O91         O  0.22044042  0.36561425  0.22272570    -0.86000
C92         C  0.26131075  0.21670729  0.32433590     0.86200
C93         C  0.25835172  0.12288256  0.25662742     1.07800
H94         H  0.22253282  0.29205865  0.28474996     0.39600
O95         O  0.22676106  0.28289836  0.25884086    -1.08700
O96         O  0.26146680  0.28495774  0.19772173    -0.65300
Ni97       Ni  0.26848683  0.27597678  0.25118082     1.26300
O98         O  0.23968235  0.21057419  0.30260748    -0.65600
O99         O  0.26213809  0.33940529  0.26160781    -0.77900
C100        C  0.33429208  0.23705119  0.25504031     0.85600
O101        O  0.31012359  0.26864693  0.24403467    -0.65000
Ni102      Ni  0.19632107  0.32571521  0.22694601     1.27400
Ni103      Ni  0.23194508  0.21900757  0.24904494     1.26100
H104        H  0.27760234  0.20328503  0.21476220     0.40100
O105        O  0.02328551  0.42396091  0.50353826    -0.73400
O106        O  0.03435738  0.03693899  0.00595533    -0.73400
O107        O  0.03446924  0.47498156  0.05525609    -0.73500
O108        O  0.03386722  0.47979022  0.45346668    -0.73500
O109        O  0.48032777  0.00731201  0.44423682    -0.73400
O110        O  0.47140010  0.01787437  0.04729674    -0.73400
O111        O  0.48139168  0.07412037  0.99734236    -0.73400
O112        O  0.47325877  0.45447355  0.99069599    -0.73500
Ni113      Ni  0.02930729  0.48276797  0.50710558     1.25400
Ni114      Ni  0.47557866  0.01543352  0.99366672     1.25400
C115        C  0.50086170  0.41191289  0.49637696     0.88800
C116        C  0.50800988  0.07787765  0.00485608     0.88700
C117        C  0.49466376  0.00301054  0.07101136     0.88800
C118        C  0.50674091  0.49107998  0.42874013     0.88900
O119        O  0.03005385  0.04495666  0.25084612    -0.73400
O120        O  0.01588243  0.42807404  0.24833580    -0.73400
O121        O  0.01782644  0.48843733  0.19633951    -0.73500
O122        O  0.01972528  0.48809312  0.30576918    -0.73500
O123        O  0.46704778  0.01846780  0.29669043    -0.73400
O124        O  0.47984979  0.01035611  0.19068718    -0.73400
O125        O  0.46929625  0.45447040  0.24047093    -0.73400
O126        O  0.47794272  0.07417925  0.24669439    -0.73500
Ni127      Ni  0.02114714  0.48683475  0.25127233     1.25400
Ni128      Ni  0.47181091  0.01545666  0.24315971     1.25400
C129        C  0.00600639  0.08040811  0.25444353     0.88800
C130        C  0.98921992  0.42391741  0.24529485     0.88700
C131        C  0.99163104  0.50464842  0.17755353     0.88800
C132        C  0.01042612  0.99494492  0.32178616     0.88900
O133        O  0.27158691  0.42343363  0.50300939    -0.73400
O134        O  0.28115663  0.04096532  0.00964190    -0.73400
O135        O  0.27178624  0.48480062  0.05909400    -0.73500
O136        O  0.28078002  0.48005219  0.45287180    -0.73500
O137        O  0.23010548  0.51138945  0.44091666    -0.73400
O138        O  0.22088521  0.01714567  0.04782186    -0.73400
O139        O  0.23051777  0.07336097  0.99755254    -0.73400
O140        O  0.22193457  0.45353967  0.99114730    -0.73500
Ni141      Ni  0.27707466  0.48240823  0.50656943     1.25400
Ni142      Ni  0.22419063  0.01483954  0.99415700     1.25400
C143        C  0.24501948  0.41938774  0.49564122     0.88800
C144        C  0.25734592  0.07669468  0.00459558     0.88700
C145        C  0.24437805  0.00198774  0.07108231     0.88800
C146        C  0.25733090  0.49442898  0.42936608     0.88900
O147        O  0.23119936  0.50931496  0.19096208    -0.73400
O148        O  0.21963853  0.01657695  0.29772979    -0.73400
O149        O  0.22865922  0.07310138  0.24728713    -0.73500
O150        O  0.22190744  0.45263977  0.24031969    -0.73500
O151        O  0.27255119  0.42109175  0.25299233    -0.73400
O152        O  0.27933716  0.04156044  0.25958823    -0.73400
O153        O  0.27090627  0.48455399  0.30923780    -0.73400
O154        O  0.28186679  0.47778450  0.20287361    -0.73500
Ni155      Ni  0.22303888  0.01421508  0.24388878     1.25400
Ni156      Ni  0.27816604  0.48002999  0.25655650     1.25400
C157        C  0.25843644  0.49249316  0.17940406     0.88800
C158        C  0.24368824  0.50146243  0.32081565     0.88700
C159        C  0.25526870  0.07702459  0.25447728     0.88800
C160        C  0.24592068  0.41724285  0.24559820     0.88900
C161        C  0.26218900  0.49106369  0.38843588    -0.15400
C162        C  0.23885024  0.50474497  0.36174739    -0.30600
H163        H  0.28571252  0.47679821  0.38009663     0.13600
H164        H  0.21541860  0.01975682  0.37077754     0.14200
C165        C  0.24002261  0.50466363  0.11197912    -0.15400
C166        C  0.26333009  0.48976826  0.13850993    -0.30600
H167        H  0.21655973  0.51937197  0.12046215     0.13600
H168        H  0.28611003  0.97485405  0.13038225     0.14200
C169        C  0.99176131  0.50604139  0.36284355    -0.15400
C170        C  0.50891923  0.48999486  0.38736880    -0.30600
H171        H  0.46163746  0.02141540  0.37043896     0.13600
H172        H  0.03886640  0.47628726  0.37953197     0.14200
C173        C  0.48910427  0.50635189  0.11195655    -0.15400
C174        C  0.98871268  0.50582132  0.13575581    -0.30600
H175        H  0.03557759  0.47433779  0.12741499     0.13600
H176        H  0.53606456  0.97538803  0.13068935     0.14200
C177        C  0.25383417  0.23815919  0.36031083    -0.12200
C178        C  0.24675530  0.25826503  0.38973439    -0.13800
C179        C  0.24882686  0.25644353  0.13980271    -0.12200
C180        C  0.25677046  0.23625052  0.11066301    -0.13800
C181        C  0.36328366  0.24345846  0.25186996    -0.12200
C182        C  0.38755207  0.24909058  0.24896776    -0.13800
C183        C  0.11137270  0.25065959  0.24989510    -0.12200
C184        C  0.13646891  0.25387542  0.24741909    -0.13800
C185        C  0.36483543  0.24518653  0.00096516    -0.12200
C186        C  0.38951054  0.24843323  0.50017097    -0.13800
C187        C  0.11649036  0.24070337  0.00413979    -0.12200
C188        C  0.13784811  0.25079768  0.49839388    -0.13800
C189        C  0.49823805  0.25401974  0.39079413    -0.12200
C190        C  0.00379283  0.24215046  0.35977337    -0.13800
C191        C  0.00501278  0.23627592  0.11143885    -0.12200
C192        C  0.99637935  0.25841716  0.13964924    -0.13800
O193        O  0.08376704  0.20223389  0.51731653    -0.79800
O194        O  0.44321733  0.22149376  0.50762981    -0.64500
O195        O  0.02752404  0.20766849  0.99287026    -1.11100
C196        C  0.99761140  0.36708556  0.99454291     1.07100
O197        O  0.41806828  0.29484951  0.98239749    -0.77700
O198        O  0.46269068  0.29172937  0.93570254    -0.65300
Ni199      Ni  0.05379399  0.17160355  0.52029641     1.34900
C200        C  0.49014667  0.28097395  0.92618200     0.85000
O201        O  0.49230538  0.14997242  0.49098311    -0.78300
O202        O  0.02934665  0.13208109  0.52482765    -0.88500
C203        C  0.41826330  0.25758857  0.99596860     0.85400
O204        O  0.03860462  0.20751012  0.56422233    -0.66700
O205        O  0.47061489  0.36781795  0.97521895    -0.86000
C206        C  0.01107018  0.21888495  0.57364983     0.86200
C207        C  0.51300100  0.11755936  0.50789959     1.07800
H208        H  0.47663262  0.28670739  0.53736268     0.39600
O209        O  0.48020122  0.27798965  0.51124923    -1.08700
O210        O  0.01384591  0.27966894  0.94862545    -0.65300
Ni211      Ni  0.02254174  0.27131536  0.00209486     1.26300
O212        O  0.49224035  0.20489915  0.55431797    -0.65600
O213        O  0.01728953  0.33444305  0.01191289    -0.77900
C214        C  0.08412759  0.23917421  0.50365220     0.85600
O215        O  0.06378145  0.26304614  0.99279111    -0.65000
Ni216      Ni  0.44715853  0.32693434  0.97965890     1.27400
Ni217      Ni  0.48530977  0.21388912  0.50091334     1.26100
H218        H  0.03160683  0.19829285  0.96695593     0.40100
O219        O  0.08326761  0.20214857  0.76787065    -0.79800
O220        O  0.43749480  0.23272554  0.75841881    -0.64500
O221        O  0.02280134  0.21294234  0.74045613    -1.11100
C222        C  0.98956322  0.37296202  0.74385491     1.07100
O223        O  0.41343292  0.29712329  0.72766335    -0.77700
O224        O  0.45885077  0.29414797  0.68274662    -0.65300
Ni225      Ni  0.05445650  0.16979000  0.77087031     1.34900
C226        C  0.48654391  0.28333180  0.67414572     0.85800
O227        O  0.48401128  0.16183630  0.73878981    -0.78300
O228        O  0.03135842  0.12857536  0.77559228    -0.88500
C229        C  0.41342554  0.26194890  0.74441559     0.85400
O230        O  0.03894303  0.20496789  0.81484274    -0.66700
O231        O  0.46483151  0.37205845  0.72259073    -0.86000
C232        C  0.01152843  0.21548724  0.82445601     0.86200
C233        C  0.50387379  0.12912852  0.75583923     1.07800
H234        H  0.46940064  0.29800630  0.78378742     0.39600
O235        O  0.47335512  0.28865886  0.75783946    -1.08700
O236        O  0.00920099  0.28631040  0.69754002    -0.65300
Ni237      Ni  0.01694872  0.27704468  0.75090371     1.26300
O238        O  0.48756481  0.21649791  0.80213092    -0.65600
O239        O  0.00987021  0.34073304  0.76122494    -0.77900
C240        C  0.08287286  0.23940972  0.75417379     0.85600
O241        O  0.05844571  0.27065707  0.74317324    -0.65000
Ni242      Ni  0.44201193  0.33027945  0.72595056     1.27400
Ni243      Ni  0.47858237  0.22493491  0.74869870     1.26100
H244        H  0.02643869  0.20448243  0.71431009     0.40100
O245        O  0.33468828  0.20276152  0.52001384    -0.79800
O246        O  0.19118971  0.22677185  0.50705383    -0.64500
O247        O  0.27571775  0.21203626  0.99074995    -1.11100
C248        C  0.24281211  0.37211756  0.99425807     1.07100
O249        O  0.16817111  0.29225465  0.98326546    -0.77700
O250        O  0.21240896  0.28923965  0.93602677    -0.65300
Ni251      Ni  0.30541759  0.17091940  0.52256943     1.34900
C252        C  0.23979559  0.27873923  0.92631158     0.85800
O253        O  0.23936526  0.15645852  0.48903870    -0.78300
O254        O  0.28179626  0.13020536  0.52678989    -0.88500
C255        C  0.16883262  0.25518394  0.99760104     0.85400
O256        O  0.28919227  0.20720830  0.56590264    -0.66700
O257        O  0.21999098  0.36607393  0.97494205    -0.86000
C258        C  0.26156134  0.21788570  0.57476924     0.86200
C259        C  0.25929318  0.12419410  0.50669967     1.07800
H260        H  0.22352608  0.29268126  0.53555525     0.39600
O261        O  0.22732758  0.28389039  0.50949338    -1.08700
O262        O  0.26147376  0.28520184  0.94769153    -0.65300
Ni263      Ni  0.27004678  0.27605284  0.00105628     1.26300
O264        O  0.24036821  0.21098303  0.55279907    -0.65600
O265        O  0.26324414  0.33972831  0.01130439    -0.77900
C266        C  0.33498400  0.23906836  0.50522302     0.85600
O267        O  0.31148822  0.26929530  0.99257860    -0.65000
Ni268      Ni  0.19693360  0.32478066  0.97991026     1.27400
Ni269      Ni  0.23279062  0.21992015  0.49934902     1.26100
H270        H  0.27929016  0.20345723  0.96460671     0.40100
O271        O  0.33281959  0.20357536  0.76748077    -0.79800
O272        O  0.18949667  0.22729920  0.75768281    -0.64500
O273        O  0.27228471  0.21440744  0.74026166    -1.11100
C274        C  0.24001529  0.37422879  0.74400157     1.07100
O275        O  0.16508089  0.29464981  0.73085217    -0.77700
O276        O  0.20988942  0.29171535  0.68464265    -0.65300
Ni277      Ni  0.30398635  0.17128737  0.77067211     1.34900
C278        C  0.23744636  0.28120167  0.67557887     0.85800
O279        O  0.23767374  0.15672128  0.73910405    -0.78300
O280        O  0.28084914  0.13018516  0.77552969    -0.88500
C281        C  0.16522291  0.25807197  0.74558758     0.85400
O282        O  0.28853864  0.20670207  0.81459479    -0.66700
O283        O  0.21720528  0.36849641  0.72437866    -0.86000
C284        C  0.26110879  0.21743749  0.82421592     0.86200
C285        C  0.25804228  0.12427836  0.75614070     1.07800
H286        H  0.22139386  0.29309983  0.78549813     0.39600
O287        O  0.22521630  0.28437178  0.75942808    -1.08700
O288        O  0.25870839  0.28793616  0.69748695    -0.65300
Ni289      Ni  0.26659789  0.27839639  0.75080649     1.26300
O290        O  0.23936351  0.21134759  0.80272475    -0.65600
O291        O  0.25999010  0.34181852  0.76145960    -0.77900
C292        C  0.33224750  0.24083314  0.75361707     0.85600
O293        O  0.30782427  0.27190301  0.74265899    -0.65000
Ni294      Ni  0.19391546  0.32721031  0.72841044     1.27400
Ni295      Ni  0.23094216  0.22035820  0.74931768     1.26100
H296        H  0.27587407  0.20596188  0.71410441     0.40100
O297        O  0.02871551  0.41558734  0.99884315    -0.73400
O298        O  0.02589371  0.04633163  0.50582666    -0.73400
O299        O  0.02131731  0.48769576  0.55964536    -0.73500
O300        O  0.03221790  0.47606677  0.94823700    -0.73500
O301        O  0.48358774  0.01056245  0.94121166    -0.73400
O302        O  0.48227095  0.00660659  0.55373250    -0.73400
O303        O  0.48406098  0.06716336  0.50180889    -0.73400
O304        O  0.47691853  0.44782679  0.49551681    -0.73500
Ni305      Ni  0.03465287  0.47468125  0.00190790     1.25400
Ni306      Ni  0.47885277  0.00836359  0.49875148     1.25400
C307        C  0.49709818  0.41895271  0.99641438     0.88800
C308        C  0.51072949  0.07127106  0.50503497     0.88700
C309        C  0.50851178  0.99031642  0.57244650     0.88800
C310        C  0.51100427  0.49303924  0.93001892     0.88900
O311        O  0.02917799  0.04147521  0.76048204    -0.73400
O312        O  0.01924570  0.42262313  0.75312117    -0.73400
O313        O  0.02924721  0.47864729  0.70298724    -0.73500
O314        O  0.01702060  0.48643688  0.80900215    -0.73500
O315        O  0.46874127  0.02068983  0.80196618    -0.73400
O316        O  0.46644268  0.02177837  0.69505244    -0.73400
O317        O  0.46501906  0.46000942  0.74484907    -0.73400
O318        O  0.47260163  0.08090267  0.75147827    -0.73500
Ni319      Ni  0.02500193  0.48133962  0.75656443     1.25400
Ni320      Ni  0.46634006  0.02202399  0.74834715     1.25400
C321        C  0.00532413  0.07692685  0.75433906     0.88800
C322        C  0.99264835  0.41878502  0.74562298     0.88700
C323        C  0.00603840  0.49358775  0.67923470     0.88800
C324        C  0.99040155  0.00329020  0.82028563     0.88900
O325        O  0.27266235  0.42171160  0.00279759    -0.73400
O326        O  0.28005711  0.04312048  0.50985122    -0.73400
O327        O  0.26972273  0.48693637  0.55923968    -0.73500
O328        O  0.28151902  0.47842103  0.95231712    -0.73500
O329        O  0.23078143  0.51028777  0.94132365    -0.73400
O330        O  0.22004055  0.01793745  0.54730366    -0.73400
O331        O  0.22940191  0.07459530  0.49727215    -0.73400
O332        O  0.22092474  0.45474795  0.49042281    -0.73500
Ni333      Ni  0.27853922  0.48042951  0.00619775     1.25400
Ni334      Ni  0.22377997  0.01561720  0.49372525     1.25400
C335        C  0.24595952  0.41796160  0.99604012     0.88800
C336        C  0.25603469  0.07850427  0.50462077     0.88700
C337        C  0.24342641  0.00334139  0.57080592     0.88800
C338        C  0.25780970  0.49331577  0.92924115     0.88900
O339        O  0.22906217  0.51186713  0.69109841    -0.73400
O340        O  0.21904500  0.01829745  0.79781113    -0.73400
O341        O  0.22813233  0.07488550  0.74738682    -0.73500
O342        O  0.21974284  0.45541119  0.74075397    -0.73500
O343        O  0.27040945  0.42321438  0.75273235    -0.73400
O344        O  0.27883086  0.04293041  0.75927292    -0.73400
O345        O  0.26987902  0.48627539  0.80891632    -0.73400
O346        O  0.27974613  0.47964700  0.70238585    -0.73500
Ni347      Ni  0.22219858  0.01626772  0.74388308     1.25400
Ni348      Ni  0.27654466  0.48188419  0.75611251     1.25400
C349        C  0.25617000  0.49463746  0.67919262     0.88800
C350        C  0.24283233  0.50325027  0.82094925     0.88700
C351        C  0.25484212  0.07853050  0.75428027     0.88800
C352        C  0.24361010  0.41974679  0.74579858     0.88900
C353        C  0.26210655  0.49068771  0.88818278    -0.15400
C354        C  0.23849613  0.50582959  0.86199746    -0.30600
H355        H  0.28545048  0.47590012  0.87932495     0.13600
H356        H  0.21514142  0.02108815  0.87099272     0.14200
C357        C  0.23757825  0.50669568  0.61168509    -0.15400
C358        C  0.26086129  0.49172616  0.63824372    -0.30600
H359        H  0.21410862  0.52158328  0.62010556     0.13600
H360        H  0.28495496  0.97700660  0.63018701     0.14200
C361        C  0.98494192  0.50630146  0.86147745    -0.15400
C362        C  0.51591940  0.49012839  0.88897189    -0.30600
H363        H  0.46894122  0.02136206  0.87299793     0.13600
H364        H  0.03189673  0.47616736  0.87715102     0.14200
C365        C  0.51233352  0.48935963  0.61437468    -0.15400
C366        C  0.01138651  0.49108689  0.63845140    -0.30600
H367        H  0.96495046  0.52227696  0.61951176     0.13600
H368        H  0.46506910  0.02272090  0.62299327     0.14200
C369        C  0.25393523  0.23821128  0.86046840    -0.12200
C370        C  0.24699374  0.25783284  0.89010279    -0.13800
C371        C  0.24545150  0.25980847  0.63968474    -0.12200
C372        C  0.25342343  0.23954135  0.61054997    -0.13800
C373        C  0.36080999  0.24824222  0.75027949    -0.12200
C374        C  0.38475754  0.25473108  0.74741899    -0.13800
C375        C  0.11176724  0.24626072  0.75107605    -0.12200
C376        C  0.13625118  0.25142182  0.74857106    -0.13800
C377        C  0.36442880  0.24481748  0.50236295    -0.12200
C378        C  0.38927216  0.25069997  0.99867374    -0.13800
C379        C  0.11339428  0.24528182  0.50079585    -0.12200
C380        C  0.14034110  0.24752252  0.00118365    -0.13800
C381        C  0.49721677  0.26090029  0.88968455    -0.12200
C382        C  0.00445830  0.23551713  0.86095177    -0.13800
C383        C  0.00368167  0.23960696  0.60988717    -0.12200
C384        C  0.99596473  0.25906753  0.63937930    -0.13800
O385        O  0.08701185  0.69994776  0.02228128    -0.79800
O386        O  0.44219711  0.72676855  0.00776870    -0.64500
O387        O  0.02371667  0.71673021  0.49005385    -1.11100
C388        C  0.98842694  0.87720254  0.49359750     1.07100
O389        O  0.41930895  0.79061302  0.48609761    -0.77700
O390        O  0.46314446  0.78606856  0.43763641    -0.65300
Ni391      Ni  0.05858255  0.66663080  0.02412539     1.34900
C392        C  0.49043638  0.77478721  0.42740478     0.85000
O393        O  0.49054482  0.65625510  0.98945921    -0.78300
O394        O  0.03597368  0.62464506  0.02760649    -0.88500
C395        C  0.41936479  0.75282886  0.49854144     0.85400
O396        O  0.04161537  0.70254115  0.06735181    -0.66700
O397        O  0.47268181  0.86180805  0.47619883    -0.86000
C398        C  0.01391697  0.71305543  0.07590594     0.86200
C399        C  0.51091751  0.62389898  0.00663802     1.07800
H400        H  0.47479028  0.79240143  0.03629361     0.39600
O401        O  0.47827330  0.78389415  0.01012310    -1.08700
O402        O  0.00919321  0.79003254  0.44683476    -0.65300
Ni403      Ni  0.01710010  0.78111584  0.50026990     1.26300
O404        O  0.49177348  0.71055409  0.05303649    -0.65600
O405        O  0.00926073  0.84506875  0.51044937    -0.77900
C406        C  0.08685159  0.73547689  0.00592541     0.85600
O407        O  0.05857164  0.77561192  0.49263377    -0.65000
Ni408      Ni  0.44877381  0.82168724  0.48190216     1.27400
Ni409      Ni  0.48376031  0.71989428  0.99972197     1.26100
H410        H  0.02761908  0.70819201  0.46397743     0.40100
O411        O  0.08256861  0.70166162  0.26691582    -0.79800
O412        O  0.44004463  0.72634378  0.25726071    -0.64500
O413        O  0.02155722  0.71578439  0.23942591    -1.11100
C414        C  0.99200967  0.87560083  0.24282448     1.07100
O415        O  0.41578778  0.79342599  0.23014508    -0.77700
O416        O  0.46121151  0.79014569  0.18456666    -0.65300
Ni417      Ni  0.05227569  0.67170392  0.27011017     1.34900
C418        C  0.48884610  0.77984502  0.17579053     0.85800
O419        O  0.48782647  0.65594455  0.23859484    -0.78300
O420        O  0.02742448  0.63275655  0.27491732    -0.88500
C421        C  0.41584657  0.75698988  0.24498761     0.85400
O422        O  0.03746104  0.70812282  0.31388369    -0.66700
O423        O  0.46798751  0.86695950  0.22422361    -0.86000
C424        C  0.00993000  0.72049293  0.32340911     0.86200
C425        C  0.50766205  0.62353618  0.25617092     1.07800
H426        H  0.47187737  0.79193323  0.28539672     0.39600
O427        O  0.47590519  0.78319763  0.25937558    -1.08700
O428        O  0.00996701  0.78863894  0.19630761    -0.65300
Ni429      Ni  0.01744360  0.77938242  0.24964631     1.26300
O430        O  0.48947258  0.71016415  0.30254053    -0.65600
O431        O  0.01205112  0.84266258  0.25974439    -0.77900
C432        C  0.08323995  0.73836215  0.25314785     0.85600
O433        O  0.05934415  0.77042499  0.24191656    -0.65000
Ni434      Ni  0.44474036  0.82581411  0.22804835     1.27400
Ni435      Ni  0.48146888  0.71932609  0.24912008     1.26100
H436        H  0.02508984  0.70686594  0.21333008     0.40100
O437        O  0.33548753  0.70252328  0.01967168    -0.79800
O438        O  0.19264930  0.72486764  0.00744660    -0.64500
O439        O  0.27435990  0.71330859  0.49115369    -1.11100
C440        C  0.24324028  0.87313729  0.49311223     1.07100
O441        O  0.16685744  0.79744537  0.48105819    -0.77700
O442        O  0.21247531  0.79075687  0.43460978    -0.65300
Ni443      Ni  0.30665313  0.66982619  0.02196590     1.34900
C444        C  0.24010419  0.77924962  0.42551764     0.85800
O445        O  0.24060831  0.65493772  0.98878817    -0.78300
O446        O  0.28342747  0.62836151  0.02584504    -0.88500
C447        C  0.16641491  0.76061131  0.49466985     0.85400
O448        O  0.29050738  0.70535677  0.06567176    -0.66700
O449        O  0.22100217  0.86709824  0.47261795    -0.86000
C450        C  0.26293918  0.71579284  0.07468386     0.86200
C451        C  0.26063146  0.62254709  0.00621785     1.07800
H452        H  0.22449611  0.79088178  0.03604200     0.39600
O453        O  0.22818022  0.78239650  0.00990996    -1.08700
O454        O  0.26173149  0.78544212  0.44722153    -0.65300
Ni455      Ni  0.26936642  0.77715548  0.50082017     1.26300
O456        O  0.24173429  0.70893695  0.05274068    -0.65600
O457        O  0.26317705  0.84073562  0.51069558    -0.77900
C458        C  0.33534080  0.73917380  0.00502792     0.85600
O459        O  0.31139281  0.76891666  0.49338503    -0.65000
Ni460      Ni  0.19676343  0.82774507  0.47771660     1.27400
Ni461      Ni  0.23392851  0.71839996  0.99939859     1.26100
H462        H  0.27863110  0.70403684  0.46527307     0.40100
O463        O  0.33409783  0.70087702  0.26789281    -0.79800
O464        O  0.19058242  0.72503850  0.25743320    -0.64500
O465        O  0.27355377  0.71212365  0.24056908    -1.11100
C466        C  0.24130637  0.87199286  0.24411506     1.07100
O467        O  0.16622040  0.79248843  0.23079441    -0.77700
O468        O  0.21134918  0.78919131  0.18471122    -0.65300
Ni469      Ni  0.30501740  0.66906386  0.27126532     1.34900
C470        C  0.23893262  0.77868226  0.17570974     0.85800
O471        O  0.23885829  0.65460161  0.23911216    -0.78300
O472        O  0.28158563  0.62844839  0.27633644    -0.88500
C473        C  0.16629753  0.75579868  0.24533292     0.85400
O474        O  0.28943427  0.70509007  0.31484067    -0.66700
O475        O  0.21861785  0.86610094  0.22430337    -0.86000
C476        C  0.26195780  0.71587245  0.32429397     0.86200
C477        C  0.25903797  0.62233504  0.25651508     1.07800
H478        H  0.22252048  0.79095949  0.28550483     0.39600
O479        O  0.22644042  0.78217256  0.25946748    -1.08700
O480        O  0.26018119  0.78543429  0.19766842    -0.65300
Ni481      Ni  0.26793563  0.77610559  0.25105534     1.26300
O482        O  0.24035684  0.70929440  0.30281072    -0.65600
O483        O  0.26129822  0.83961028  0.26161267    -0.77900
C484        C  0.33375583  0.73805403  0.25409415     0.85600
O485        O  0.30938286  0.76940147  0.24321531    -0.65000
Ni486      Ni  0.19521953  0.82491783  0.22833510     1.27400
Ni487      Ni  0.23211730  0.71817981  0.24935143     1.26100
H488        H  0.27728247  0.70356291  0.21445779     0.40100
O489        O  0.01774093  0.92718784  0.49899665    -0.73400
O490        O  0.03612588  0.53646760  0.00542268    -0.73400
O491        O  0.03101476  0.97669439  0.05561884    -0.73500
O492        O  0.02126781  0.98723707  0.44729273    -0.73500
O493        O  0.48095670  0.50722788  0.44440244    -0.73400
O494        O  0.47125275  0.51814541  0.04733873    -0.73400
O495        O  0.48126913  0.57414678  0.99721176    -0.73400
O496        O  0.47309228  0.95466832  0.99033026    -0.73500
Ni497      Ni  0.02330212  0.98584273  0.50227454     1.25400
Ni498      Ni  0.47557880  0.51535404  0.99375751     1.25400
C499        C  0.50024007  0.91204262  0.49623058     0.88800
C500        C  0.50784770  0.57805103  0.00475038     0.88700
C501        C  0.49445250  0.50349553  0.07115663     0.88800
C502        C  0.50617078  0.99129606  0.42866816     0.88900
O503        O  0.02371541  0.54729515  0.25458746    -0.73400
O504        O  0.02220001  0.92481885  0.24435331    -0.73400
O505        O  0.01878859  0.98913568  0.19338495    -0.73500
O506        O  0.03338224  0.98067369  0.30108173    -0.73500
O507        O  0.46687821  0.51866864  0.29705162    -0.73400
O508        O  0.47930053  0.51065462  0.19086558    -0.73400
O509        O  0.46965940  0.95426982  0.24015868    -0.73400
O510        O  0.47733534  0.57447976  0.24685592    -0.73500
Ni511      Ni  0.02789594  0.98380551  0.24710132     1.25400
Ni512      Ni  0.47137931  0.51569214  0.24342185     1.25400
C513        C  0.99976168  0.58318142  0.25372832     0.88800
C514        C  0.99548252  0.92116731  0.24551886     0.88700
C515        C  0.99125454  0.00622879  0.17846190     0.88800
C516        C  0.99393714  0.50437211  0.32141054     0.88900
O517        O  0.27272537  0.92305231  0.50291891    -0.73400
O518        O  0.28098361  0.54130476  0.00935820    -0.73400
O519        O  0.27153335  0.98469812  0.05927806    -0.73500
O520        O  0.28158248  0.97990125  0.45273456    -0.73500
O521        O  0.23086262  0.01116068  0.44111696    -0.73400
O522        O  0.22108276  0.51688090  0.04788553    -0.73400
O523        O  0.23030051  0.57340866  0.99749939    -0.73400
O524        O  0.22171590  0.95388352  0.99113597    -0.73500
Ni525      Ni  0.27808689  0.98204315  0.50655264     1.25400
Ni526      Ni  0.22421004  0.51467185  0.99415561     1.25400
C527        C  0.24618335  0.91898440  0.49555371     0.88800
C528        C  0.25708959  0.57695227  0.00438542     0.88700
C529        C  0.24468571  0.50190997  0.07103784     0.88800
C530        C  0.25799963  0.99431212  0.42938050     0.88900
O531        O  0.23030959  0.00955376  0.19110300    -0.73400
O532        O  0.22022316  0.51588960  0.29733638    -0.73400
O533        O  0.22939614  0.57259741  0.24725912    -0.73500
O534        O  0.22080014  0.95321332  0.24080098    -0.73500
O535        O  0.27143709  0.92142871  0.25324364    -0.73400
O536        O  0.28007389  0.54121141  0.25975296    -0.73400
O537        O  0.27034603  0.98500931  0.30924084    -0.73400
O538        O  0.28096516  0.97782047  0.20296634    -0.73500
Ni539      Ni  0.22387562  0.51370442  0.24363032     1.25400
Ni540      Ni  0.27732385  0.98031766  0.25658358     1.25400
C541        C  0.25755334  0.99257158  0.17952039     0.88800
C542        C  0.24324015  0.00206992  0.32103933     0.88700
C543        C  0.25598819  0.57656238  0.25453114     0.88800
C544        C  0.24473162  0.91768034  0.24604764     0.88900
C545        C  0.26245591  0.99117645  0.38837308    -0.15400
C546        C  0.23882086  0.00529388  0.36205772    -0.30600
H547        H  0.28586078  0.97672629  0.37966061     0.13600
H548        H  0.21532893  0.51900727  0.37009308     0.14200
C549        C  0.23946519  0.00476378  0.11197027    -0.15400
C550        C  0.26259509  0.98971066  0.13865737    -0.30600
H551        H  0.21596153  0.01965547  0.12027933     0.13600
H552        H  0.28680688  0.47508213  0.13007700     0.14200
C553        C  0.01604692  0.99140638  0.36347578    -0.15400
C554        C  0.50854834  0.99019216  0.38732121    -0.30600
H555        H  0.46196725  0.52190676  0.37096609     0.13600
H556        H  0.96932825  0.01922804  0.37362735     0.14200
C557        C  0.48948707  0.00576842  0.11186265    -0.15400
C558        C  0.98560519  0.00886768  0.13676211    -0.30600
H559        H  0.03203619  0.97683515  0.12642527     0.13600
H560        H  0.53562039  0.47608663  0.13095361     0.14200
C561        C  0.25459246  0.73731449  0.36027155    -0.12200
C562        C  0.24758529  0.75754653  0.38964957    -0.13800
C563        C  0.24695874  0.75733094  0.13978858    -0.12200
C564        C  0.25487669  0.73719172  0.11058009    -0.13800
C565        C  0.36259798  0.74481878  0.25071362    -0.12200
C566        C  0.38693351  0.75027838  0.24795677    -0.13800
C567        C  0.11267487  0.74387280  0.25036155    -0.12200
C568        C  0.13726384  0.74895562  0.24807725    -0.13800
C569        C  0.36432558  0.74606904  0.00224400    -0.12200
C570        C  0.39000166  0.74682984  0.50156445    -0.13800
C571        C  0.11553753  0.74260059  0.00271310    -0.12200
C572        C  0.13696145  0.75541976  0.49784994    -0.13800
C573        C  0.49693237  0.75482994  0.39075213    -0.12200
C574        C  0.00294244  0.74200505  0.35948904    -0.13800
C575        C  0.00521913  0.73626420  0.11104490    -0.12200
C576        C  0.99687831  0.75836225  0.13935994    -0.13800
O577        O  0.08373379  0.70753531  0.51794249    -0.79800
O578        O  0.44376394  0.72047585  0.50823831    -0.64500
O579        O  0.02719319  0.70826910  0.99229187    -1.11100
C580        C  0.99538773  0.86813326  0.99436743     1.07100
O581        O  0.41756407  0.79535202  0.98307827    -0.77700
O582        O  0.46177612  0.79218185  0.93578541    -0.65300
Ni583      Ni  0.05541458  0.67433347  0.52097501     1.34900
C584        C  0.48914772  0.78133380  0.92595477     0.85000
O585        O  0.49294853  0.64969376  0.49078203    -0.78300
O586        O  0.03289248  0.63220177  0.52563729    -0.88500
C587        C  0.41780799  0.75814632  0.99679406     0.85400
O588        O  0.03922015  0.70977681  0.56465029    -0.66700
O589        O  0.47009194  0.86816508  0.97507334    -0.86000
C590        C  0.01174166  0.71949138  0.57384723     0.86200
C591        C  0.51387836  0.61733671  0.50744811     1.07800
H592        H  0.47705097  0.78610784  0.53789887     0.39600
O593        O  0.48033341  0.77768112  0.51168485    -1.08700
O594        O  0.01288338  0.78056586  0.94811251    -0.65300
Ni595      Ni  0.02150772  0.77220788  0.00158212     1.26300
O596        O  0.49319155  0.70402388  0.55430420    -0.65600
O597        O  0.01542514  0.83559582  0.01149282    -0.77900
C598        C  0.08315047  0.74469380  0.50386534     0.85600
O599        O  0.06266724  0.76500999  0.99242761    -0.65000
Ni600      Ni  0.44664593  0.82734507  0.97991509     1.27400
Ni601      Ni  0.48568196  0.71357121  0.50100454     1.26100
H602        H  0.03125106  0.69905476  0.96634723     0.40100
O603        O  0.08324815  0.70071944  0.76758046    -0.79800
O604        O  0.43719273  0.73285340  0.75708556    -0.64500
O605        O  0.02254961  0.71270327  0.74018831    -1.11100
C606        C  0.99082746  0.87245210  0.74416750     1.07100
O607        O  0.41337259  0.79706714  0.72595811    -0.77700
O608        O  0.45932028  0.79390783  0.68177477    -0.65300
Ni609      Ni  0.05396546  0.66901239  0.77042816     1.34900
C610        C  0.48715147  0.78298252  0.67369090     0.85800
O611        O  0.48400409  0.66176940  0.73837048    -0.78300
O612        O  0.03029667  0.62850215  0.77498761    -0.88500
C613        C  0.41322543  0.76204986  0.74283146     0.85400
O614        O  0.03866383  0.70422647  0.81447903    -0.66700
O615        O  0.46477761  0.87211597  0.72169582    -0.86000
C616        C  0.01120953  0.71519352  0.82407314     0.86200
C617        C  0.50376800  0.62921835  0.75573214     1.07800
H618        H  0.46875016  0.79832406  0.78285255     0.39600
O619        O  0.47300814  0.78882740  0.75700044    -1.08700
O620        O  0.00947584  0.78624714  0.69770496    -0.65300
Ni621      Ni  0.01721455  0.77657092  0.75103460     1.26300
O622        O  0.48681847  0.71702827  0.80155478    -0.65600
O623        O  0.01072374  0.84001959  0.76175404    -0.77900
C624        C  0.08308604  0.73811368  0.75430586     0.85600
O625        O  0.05878339  0.76962214  0.74340670    -0.65000
Ni626      Ni  0.44196032  0.83026746  0.72464892     1.27400
Ni627      Ni  0.47840474  0.72501481  0.74802113     1.26100
H628        H  0.02615227  0.70437424  0.71401731     0.40100
O629        O  0.33453299  0.70181367  0.52103872    -0.79800
O630        O  0.19045622  0.72851461  0.50556500    -0.64500
O631        O  0.27534719  0.71253381  0.99087083    -1.11100
C632        C  0.24241506  0.87254510  0.99420712     1.07100
O633        O  0.16773413  0.79305827  0.98235193    -0.77700
O634        O  0.21219215  0.78998989  0.93550141    -0.65300
Ni635      Ni  0.30479552  0.67063680  0.52315316     1.34900
C636        C  0.23965089  0.77939488  0.92601812     0.85800
O637        O  0.23864814  0.65702473  0.48856905    -0.78300
O638        O  0.28066794  0.63058168  0.52702060    -0.88500
C639        C  0.16824255  0.75590825  0.99634856     0.85400
O640        O  0.28818236  0.70739593  0.56609897    -0.66700
O641        O  0.21966814  0.86660617  0.97469591    -0.86000
C642        C  0.26042043  0.71832082  0.57452533     0.86200
C643        C  0.25830272  0.62469071  0.50655328     1.07800
H644        H  0.22357562  0.79331558  0.53495053     0.39600
O645        O  0.22753510  0.78441147  0.50894259    -1.08700
O646        O  0.26128810  0.78561077  0.94763140    -0.65300
Ni647      Ni  0.26955417  0.77655385  0.00104447     1.26300
O648        O  0.23932207  0.71174207  0.55218845    -0.65600
O649        O  0.26272491  0.84015287  0.01134753    -0.77900
C650        C  0.33530204  0.73776660  0.50608499     0.85600
O651        O  0.31103354  0.76983053  0.99285568    -0.65000
Ni652      Ni  0.19655185  0.82541889  0.97935119     1.27400
Ni653      Ni  0.23244626  0.72055261  0.49870060     1.26100
H654        H  0.27922164  0.70381938  0.96481137     0.40100
O655        O  0.33271394  0.70423584  0.76711424    -0.79800
O656        O  0.18958297  0.72723816  0.75807728    -0.64500
O657        O  0.27219655  0.71448371  0.73992965    -1.11100
C658        C  0.23989794  0.87429699  0.74368294     1.07100
O659        O  0.16483815  0.79488270  0.73189189    -0.77700
O660        O  0.20916173  0.79187556  0.68493787    -0.65300
Ni661      Ni  0.30402635  0.67165972  0.77041693     1.34900
C662        C  0.23659618  0.78130670  0.67542597     0.85800
O663        O  0.23763988  0.65680717  0.73923150    -0.78300
O664        O  0.28101523  0.63030056  0.77534223    -0.88500
C665        C  0.16518631  0.75802602  0.74636054     0.85400
O666        O  0.28862594  0.70717783  0.81434043    -0.66700
O667        O  0.21694346  0.86863102  0.72432666    -0.86000
C668        C  0.26123786  0.71785069  0.82406413     0.86200
C669        C  0.25810459  0.62436606  0.75615422     1.07800
H670        H  0.22170771  0.79313592  0.78561415     0.39600
O671        O  0.22526699  0.78444598  0.75948342    -1.08700
O672        O  0.25809045  0.78795649  0.69694418    -0.65300
Ni673      Ni  0.26653969  0.77844459  0.75020816     1.26300
O674        O  0.23954187  0.71140795  0.80273099    -0.65600
O675        O  0.26005849  0.84179311  0.76078863    -0.77900
C676        C  0.33207512  0.74116543  0.75259301     0.85600
O677        O  0.30761533  0.77189490  0.74128246    -0.65000
Ni678      Ni  0.19366950  0.82738851  0.72887662     1.27400
Ni679      Ni  0.23092938  0.72043396  0.74937573     1.26100
H680        H  0.27569161  0.70591135  0.71376870     0.40100
O681        O  0.02619214  0.91680337  0.99933398    -0.73400
O682        O  0.03145904  0.54405725  0.51016490    -0.73400
O683        O  0.02077777  0.98728259  0.55662479    -0.73500
O684        O  0.03086970  0.97640058  0.94885095    -0.73500
O685        O  0.48366855  0.51018606  0.94132778    -0.73400
O686        O  0.48301019  0.50662588  0.55384840    -0.73400
O687        O  0.48488571  0.56703184  0.50183803    -0.73400
O688        O  0.47626426  0.94788574  0.49533975    -0.73500
Ni689      Ni  0.03234588  0.97559482  0.00246641     1.25400
Ni690      Ni  0.47957203  0.50830009  0.49888570     1.25400
C691        C  0.49688278  0.91905105  0.99589192     0.88800
C692        C  0.51158013  0.57106233  0.50485662     0.88700
C693        C  0.50924953  0.49037710  0.57255786     0.88800
C694        C  0.51090334  0.99337249  0.92983400     0.88900
O695        O  0.02738569  0.54214124  0.75962559    -0.73400
O696        O  0.02099316  0.92166161  0.75397246    -0.73400
O697        O  0.03239720  0.97692380  0.70407614    -0.73500
O698        O  0.01792991  0.98615017  0.80959603    -0.73500
O699        O  0.46895045  0.52044944  0.80202558    -0.73400
O700        O  0.46686295  0.52135052  0.69505577    -0.73400
O701        O  0.46462305  0.96031390  0.74473594    -0.73400
O702        O  0.47268863  0.58072392  0.75143005    -0.73500
Ni703      Ni  0.02692561  0.98042532  0.75747415     1.25400
Ni704      Ni  0.46662456  0.52172970  0.74837277     1.25400
C705        C  0.00357223  0.57771522  0.75400037     0.88800
C706        C  0.99437893  0.91798526  0.74588856     0.88700
C707        C  0.00954280  0.99158814  0.67982490     0.88800
C708        C  0.98971867  0.50352427  0.82040577     0.88900
O709        O  0.27241913  0.92176105  0.00289107    -0.73400
O710        O  0.27900531  0.54356607  0.50976576    -0.73400
O711        O  0.27070449  0.98648432  0.55930139    -0.73500
O712        O  0.28155726  0.97825486  0.95244292    -0.73500
O713        O  0.23084672  0.01035155  0.94137453    -0.73400
O714        O  0.21905724  0.51836677  0.54727612    -0.73400
O715        O  0.22836886  0.57505993  0.49709456    -0.73400
O716        O  0.22202826  0.95431163  0.49051488    -0.73500
Ni717      Ni  0.27848239  0.98027345  0.00637773     1.25400
Ni718      Ni  0.22279812  0.51601529  0.49358773     1.25400
C719        C  0.24567203  0.91823220  0.99606416     0.88800
C720        C  0.25499080  0.57898288  0.50445719     0.88700
C721        C  0.24248083  0.50377976  0.57077743     0.88800
C722        C  0.25786587  0.99323753  0.92931844     0.88900
O723        O  0.22924135  0.01182234  0.69100605    -0.73400
O724        O  0.21915413  0.51820125  0.79783728    -0.73400
O725        O  0.22817570  0.57490152  0.74748318    -0.73500
O726        O  0.21963839  0.95550140  0.74059420    -0.73500
O727        O  0.27027888  0.92326347  0.75276309    -0.73400
O728        O  0.27889110  0.54295493  0.75917891    -0.73400
O729        O  0.26975430  0.98632856  0.80897503    -0.73400
O730        O  0.27989148  0.97957325  0.70259418    -0.73500
Ni731      Ni  0.22223048  0.51623621  0.74397743     1.25400
Ni732      Ni  0.27648897  0.98188085  0.75622414     1.25400
C733        C  0.25642714  0.99459127  0.67927688     0.88800
C734        C  0.24271502  0.00337436  0.82097923     0.88700
C735        C  0.25489658  0.57857166  0.75431108     0.88800
C736        C  0.24348498  0.91982164  0.74563634     0.88900
C737        C  0.26209971  0.99058139  0.88821815    -0.15400
C738        C  0.23845022  0.00602569  0.86207391    -0.30600
H739        H  0.28540639  0.97551422  0.87929274     0.13600
H740        H  0.21514972  0.52061951  0.87084706     0.14200
C741        C  0.23830859  0.00630843  0.61164464    -0.15400
C742        C  0.26141585  0.99168295  0.63841231    -0.30600
H743        H  0.21475889  0.02095237  0.61983718     0.13600
H744        H  0.28431708  0.47679911  0.62977658     0.14200
C745        C  0.98493902  0.00631364  0.86115800    -0.15400
C746        C  0.51578643  0.99054173  0.88879943    -0.30600
H747        H  0.46906413  0.52074085  0.87307755     0.13600
H748        H  0.03170069  0.97635405  0.87791572     0.14200
C749        C  0.51163680  0.98920051  0.61423948    -0.15400
C750        C  0.01512841  0.98869186  0.63898374    -0.30600
H751        H  0.96860109  0.02062688  0.62208609     0.13600
H752        H  0.46563970  0.52197134  0.62297973     0.14200
C753        C  0.25404378  0.73891315  0.86022603    -0.12200
C754        C  0.24699349  0.75861398  0.88980496    -0.13800
C755        C  0.24418763  0.76002262  0.63942887    -0.12200
C756        C  0.25205296  0.73987527  0.61023991    -0.13800
C757        C  0.36057605  0.74859299  0.74890091    -0.12200
C758        C  0.38450451  0.75502222  0.74579944    -0.13800
C759        C  0.11203803  0.74503034  0.75164263    -0.12200
C760        C  0.13635181  0.75086813  0.74934733    -0.13800
C761        C  0.36494052  0.74305306  0.50360073    -0.12200
C762        C  0.38880687  0.75141226  0.99985883    -0.13800
C763        C  0.11209700  0.75147395  0.50049616    -0.12200
C764        C  0.13960322  0.74870444  0.99973673    -0.13800
C765        C  0.49594164  0.76138967  0.88937049    -0.12200
C766        C  0.00418379  0.73542958  0.86052533    -0.13800
C767        C  0.00381551  0.74004144  0.60999944    -0.12200
C768        C  0.99600088  0.75938228  0.63949854    -0.13800
O769        O  0.58589636  0.20316129  0.01984107    -0.79800
O770        O  0.94375390  0.22259052  0.00796662    -0.64500
O771        O  0.52705890  0.20715076  0.49309862    -1.11100
C772        C  0.49666518  0.36676919  0.49471432     1.07100
O773        O  0.91592312  0.29884097  0.48067808    -0.77700
O774        O  0.96129441  0.29413881  0.43448587    -0.65300
Ni775      Ni  0.55691411  0.17091017  0.02249626     1.34900
C776        C  0.98886101  0.28304406  0.42528351     0.85000
O777        O  0.99231864  0.15115194  0.99067160    -0.78300
O778        O  0.53359583  0.12986081  0.02683859    -0.88500
C779        C  0.91566899  0.26235648  0.49522924     0.85400
O780        O  0.54067685  0.20697193  0.06591558    -0.66700
O781        O  0.96986120  0.36990274  0.47410071    -0.86000
C782        C  0.51309180  0.21729435  0.07487562     0.86200
C783        C  0.01280422  0.11851749  0.00752816     1.07800
H784        H  0.97762551  0.28724917  0.03775282     0.39600
O785        O  0.98098988  0.27869108  0.01157471    -1.08700
O786        O  0.51353365  0.27921177  0.44875210    -0.65300
Ni787      Ni  0.52180451  0.27092027  0.50222819     1.26300
O788        O  0.99294651  0.20529315  0.05428133    -0.65600
O789        O  0.51634016  0.33409406  0.51204487    -0.77900
C790        C  0.58574423  0.23979686  0.00522392     0.85600
O791        O  0.56305343  0.26295665  0.49326368    -0.65000
Ni792      Ni  0.94565523  0.33000175  0.47820668     1.27400
Ni793      Ni  0.98577634  0.21477973  0.00095472     1.26100
H794        H  0.53130098  0.19770512  0.46723364     0.40100
O795        O  0.58385308  0.20189400  0.26774640    -0.79800
O796        O  0.94005317  0.22807133  0.25785770    -0.64500
O797        O  0.52330481  0.21318938  0.24042308    -1.11100
C798        C  0.49025076  0.37317788  0.24428196     1.07100
O799        O  0.91497309  0.29360805  0.22892896    -0.77700
O800        O  0.95995613  0.29191120  0.18339822    -0.65300
Ni801      Ni  0.55487498  0.16964591  0.27061046     1.34900
C802        C  0.98760396  0.28177510  0.17472603     0.85800
O803        O  0.98836415  0.15838250  0.23928278    -0.78300
O804        O  0.53150889  0.12858893  0.27511723    -0.88500
C805        C  0.91556915  0.25760322  0.24492035     0.85400
O806        O  0.53952498  0.20457339  0.31475823    -0.66700
O807        O  0.96491367  0.37051042  0.22291588    -0.86000
C808        C  0.51209605  0.21523825  0.32435471     0.86200
C809        C  0.00892704  0.12626179  0.25629351     1.07800
H810        H  0.97067023  0.29544028  0.28430036     0.39600
O811        O  0.97472256  0.28635631  0.25833545    -1.08700
O812        O  0.50984550  0.28679877  0.19787302    -0.65300
Ni813      Ni  0.51755067  0.27724860  0.25120508     1.26300
O814        O  0.98968850  0.21386018  0.30245467    -0.65600
O815        O  0.51048227  0.34093314  0.26175188    -0.77900
C816        C  0.58349996  0.23938857  0.25444695     0.85600
O817        O  0.55908446  0.27082098  0.24367910    -0.65000
Ni818      Ni  0.94292661  0.32765979  0.22668684     1.27400
Ni819      Ni  0.98120062  0.22209762  0.24901636     1.26100
H820        H  0.52692262  0.20488154  0.21425440     0.40100
O821        O  0.83550106  0.20327234  0.02047126    -0.79800
O822        O  0.69219806  0.22740333  0.00720929    -0.64500
O823        O  0.77470237  0.21326792  0.49068784    -1.11100
C824        C  0.74118837  0.37314287  0.49487079     1.07100
O825        O  0.66702381  0.29267211  0.48432011    -0.77700
O826        O  0.71080752  0.29032022  0.43660496    -0.65300
Ni827      Ni  0.80630340  0.17117036  0.02256580     1.34900
C828        C  0.73814642  0.28018640  0.42678762     0.85800
O829        O  0.74009624  0.15706655  0.98888713    -0.78300
O830        O  0.78268589  0.13030775  0.02630402    -0.88500
C831        C  0.66797296  0.25515504  0.49809008     0.85400
O832        O  0.79010035  0.20684082  0.06618011    -0.66700
O833        O  0.71834307  0.36707092  0.47565112    -0.86000
C834        C  0.76248363  0.21742395  0.07506690     0.86200
C835        C  0.75996176  0.12462835  0.00645026     1.07800
H836        H  0.72469728  0.29291022  0.03619217     0.39600
O837        O  0.72838802  0.28434568  0.01007241    -1.08700
O838        O  0.75971841  0.28702247  0.44810916    -0.65300
Ni839      Ni  0.76858106  0.27732696  0.50136382     1.26300
O840        O  0.74122407  0.21104167  0.05291700    -0.65600
O841        O  0.76151742  0.34087631  0.51208740    -0.77900
C842        C  0.83580578  0.23960643  0.00571278     0.85600
O843        O  0.80964554  0.27150292  0.49255789    -0.65000
Ni844      Ni  0.69550498  0.32550769  0.48073718     1.27400
Ni845      Ni  0.73371880  0.22045281  0.99952734     1.26100
H846        H  0.77827321  0.20496701  0.46450499     0.40100
O847        O  0.83360504  0.20203812  0.26971358    -0.79800
O848        O  0.69005349  0.22738477  0.25796489    -0.64500
O849        O  0.77318577  0.21347607  0.24159543    -1.11100
C850        C  0.74160003  0.37336565  0.24434778     1.07100
O851        O  0.66591434  0.29502760  0.23157201    -0.77700
O852        O  0.71112323  0.29090268  0.18536909    -0.65300
Ni853      Ni  0.80427490  0.17054551  0.27278771     1.34900
C854        C  0.73873496  0.27986178  0.17632903     0.85800
O855        O  0.73812243  0.15657884  0.23978189    -0.78300
O856        O  0.78058306  0.13014092  0.27742751    -0.88500
C857        C  0.66586358  0.25840532  0.24606009     0.85400
O858        O  0.78839770  0.20688697  0.31622265    -0.66700
O859        O  0.71877465  0.36768796  0.22472600    -0.86000
C860        C  0.76081309  0.21775390  0.32533039     0.86200
C861        C  0.75817343  0.12415393  0.25718876     1.07800
H862        H  0.72240164  0.29290591  0.28618730     0.39600
O863        O  0.72626987  0.28403140  0.26015005    -1.08700
O864        O  0.76014243  0.28626319  0.19820701    -0.65300
Ni865      Ni  0.76786990  0.27738029  0.25164063     1.26300
O866        O  0.73941583  0.21116692  0.30352256    -0.65600
O867        O  0.76158736  0.34088795  0.26176710    -0.77900
C868        C  0.83361290  0.23861676  0.25516205     0.85600
O869        O  0.80941957  0.26988801  0.24365117    -0.65000
Ni870      Ni  0.69516142  0.32691885  0.22895260     1.27400
Ni871      Ni  0.73163272  0.22008724  0.25007073     1.26100
H872        H  0.77705623  0.20458909  0.21556375     0.40100
O873        O  0.52800525  0.41497725  0.49919277    -0.73400
O874        O  0.53195987  0.04234930  0.01038596    -0.73400
O875        O  0.52181702  0.48651224  0.06000391    -0.73500
O876        O  0.53204511  0.47506328  0.44860339    -0.73500
O877        O  0.97015918  0.01906423  0.44432810    -0.73400
O878        O  0.97994836  0.00913762  0.05300062    -0.73400
O879        O  0.98319615  0.06882541  0.00109473    -0.73400
O880        O  0.97758906  0.44799506  0.99524527    -0.73500
Ni881      Ni  0.53431003  0.47386408  0.50223194     1.25400
Ni882      Ni  0.97760633  0.01011103  0.99803331     1.25400
C883        C  0.99656535  0.42044370  0.49586221     0.88800
C884        C  0.01000611  0.07256385  0.00473088     0.88700
C885        C  0.00594578  0.99300537  0.07213425     0.88800
C886        C  0.01066735  0.49435907  0.42965869     0.88900
O887        O  0.52841579  0.04207551  0.26022329    -0.73400
O888        O  0.51987270  0.42294058  0.25359242    -0.73400
O889        O  0.52986994  0.47908171  0.20353582    -0.73500
O890        O  0.51742732  0.48674940  0.30949849    -0.73500
O891        O  0.98288517  0.01203882  0.30686035    -0.73400
O892        O  0.96831935  0.02101609  0.19916993    -0.73400
O893        O  0.96468441  0.45937040  0.24443226    -0.73400
O894        O  0.97940385  0.07656364  0.25600904    -0.73500
Ni895      Ni  0.52553610  0.48172507  0.25710490     1.25400
Ni896      Ni  0.97376934  0.01769507  0.25313631     1.25400
C897        C  0.50467948  0.07767562  0.25435041     0.88800
C898        C  0.49329168  0.41903660  0.24612624     0.88700
C899        C  0.50667226  0.49377604  0.17972175     0.88800
C900        C  0.49013613  0.00363717  0.32057866     0.88900
O901        O  0.77125615  0.42235368  0.50337773    -0.73400
O902        O  0.78040741  0.04355938  0.00977804    -0.73400
O903        O  0.77151041  0.48684860  0.05933460    -0.73500
O904        O  0.78082733  0.47864240  0.45304372    -0.73500
O905        O  0.73018555  0.51074585  0.44134351    -0.73400
O906        O  0.72037525  0.01868786  0.04755726    -0.73400
O907        O  0.72975966  0.07529268  0.99734792    -0.73400
O908        O  0.72218525  0.45497315  0.99101352    -0.73500
Ni909      Ni  0.77730722  0.48091765  0.50682138     1.25400
Ni910      Ni  0.72399159  0.01632799  0.99391903     1.25400
C911        C  0.74452195  0.41878563  0.49636666     0.88800
C912        C  0.75646339  0.07904714  0.00452127     0.88700
C913        C  0.74379885  0.00396834  0.07100010     0.88800
C914        C  0.75735456  0.49361270  0.42964216     0.88900
O915        O  0.73082072  0.51072348  0.19113685    -0.73400
O916        O  0.71924207  0.01824533  0.29792594    -0.73400
O917        O  0.72836457  0.07470424  0.24752402    -0.73500
O918        O  0.72126266  0.45459545  0.24091301    -0.73500
O919        O  0.77188197  0.42255809  0.25334488    -0.73400
O920        O  0.77902761  0.04285234  0.25981352    -0.73400
O921        O  0.77081303  0.48615986  0.30938350    -0.73400
O922        O  0.78146719  0.47870821  0.20288696    -0.73500
Ni923      Ni  0.72251024  0.01603554  0.24404553     1.25400
Ni924      Ni  0.77790638  0.48131535  0.25660456     1.25400
C925        C  0.75801128  0.49356888  0.17948299     0.88800
C926        C  0.74364680  0.50329153  0.32109152     0.88700
C927        C  0.75502192  0.07840776  0.25481853     0.88800
C928        C  0.74513989  0.41896888  0.24618150     0.88900
C929        C  0.76213862  0.49082637  0.38866280    -0.15400
C930        C  0.73887857  0.50624276  0.36208231    -0.30600
H931        H  0.78557539  0.47562042  0.38019601     0.13600
H932        H  0.71519736  0.02094499  0.37104365     0.14200
C933        C  0.73959747  0.50610428  0.11205500    -0.15400
C934        C  0.76285873  0.49073278  0.13857132    -0.30600
H935        H  0.71614725  0.52108387  0.12052811     0.13600
H936        H  0.78534086  0.97640126  0.13033309     0.14200
C937        C  0.48516902  0.50648310  0.36180022    -0.15400
C938        C  0.01559392  0.49108632  0.38859658    -0.30600
H939        H  0.03953730  0.97728964  0.37541935     0.13600
H940        H  0.53193967  0.47469042  0.37755655     0.14200
C941        C  0.01262217  0.48931895  0.11406977    -0.15400
C942        C  0.51202944  0.49105536  0.13893241    -0.30600
H943        H  0.46551417  0.52133222  0.11993656     0.13600
H944        H  0.96221921  0.02433882  0.12486603     0.14200
C945        C  0.75301322  0.23917837  0.36126226    -0.12200
C946        C  0.74551867  0.25915425  0.39063734    -0.13800
C947        C  0.74659863  0.25842068  0.14038657    -0.12200
C948        C  0.75443561  0.23844908  0.11108836    -0.13800
C949        C  0.86263015  0.24478975  0.25161750    -0.12200
C950        C  0.88694048  0.25019153  0.24847690    -0.13800
C951        C  0.61240444  0.24638680  0.25149475    -0.12200
C952        C  0.63681222  0.25186669  0.24898610    -0.13800
C953        C  0.86516503  0.24564764  0.00318320    -0.12200
C954        C  0.88668484  0.25574945  0.49814941    -0.13800
C955        C  0.61463745  0.24664739  0.00226426    -0.12200
C956        C  0.63961023  0.24729159  0.50175255    -0.13800
C957        C  0.99642245  0.26209198  0.38917816    -0.12200
C958        C  0.50501580  0.23512708  0.36087375    -0.13800
C959        C  0.50496987  0.23865970  0.11073172    -0.12200
C960        C  0.49691621  0.25866652  0.13992499    -0.13800
O961        O  0.58675644  0.19856285  0.52417387    -0.79800
O962        O  0.93971322  0.23121545  0.50713968    -0.64500
O963        O  0.52569200  0.21351167  0.99120583    -1.11100
C964        C  0.49355002  0.37341040  0.99459883     1.07100
O965        O  0.91987370  0.29277146  0.98567472    -0.77700
O966        O  0.96416647  0.28679565  0.93751041    -0.65300
Ni967      Ni  0.55803966  0.16560000  0.52545801     1.34900
C968        C  0.99154115  0.27483878  0.92745640     0.85000
O969        O  0.98652297  0.15998904  0.48806996    -0.78300
O970        O  0.53511527  0.12395133  0.52848477    -0.88500
C971        C  0.91958249  0.25521724  0.99817047     0.85400
O972        O  0.54073530  0.20198184  0.56834265    -0.66700
O973        O  0.97425526  0.36214460  0.97569543    -0.86000
C974        C  0.51291220  0.21292512  0.57646699     0.86200
C975        C  0.00609593  0.12727036  0.50557990     1.07800
H976        H  0.97286330  0.29524523  0.53518605     0.39600
O977        O  0.97660375  0.28653716  0.50909841    -1.08700
O978        O  0.51193912  0.28651839  0.94791869    -0.65300
Ni979      Ni  0.52005662  0.27745517  0.00137567     1.26300
O980        O  0.98929667  0.21339185  0.55192611    -0.65600
O981        O  0.51361371  0.34089987  0.01182439    -0.77900
C982        C  0.58697880  0.23364222  0.50746839     0.85600
O983        O  0.56148067  0.27055568  0.99321476    -0.65000
Ni984      Ni  0.94982340  0.32292968  0.98150956     1.27400
Ni985      Ni  0.98118811  0.22302364  0.49863807     1.26100
H986        H  0.52963750  0.20475733  0.96516747     0.40100
O987        O  0.58107181  0.20463731  0.76457837    -0.79800
O988        O  0.94008644  0.22516658  0.75778162    -0.64500
O989        O  0.52000359  0.21797016  0.73886199    -1.11100
C990        C  0.48721422  0.37831630  0.74272986     1.07100
O991        O  0.91543776  0.29209784  0.73056619    -0.77700
O992        O  0.96041819  0.28969777  0.68453856    -0.65300
Ni993      Ni  0.55145714  0.17385496  0.76870955     1.34900
C994        C  0.98796379  0.27967589  0.67550305     0.85800
O995        O  0.98826465  0.15503753  0.73907852    -0.78300
O996        O  0.52736752  0.13403163  0.77441910    -0.88500
C997        C  0.91572459  0.25559716  0.74554338     0.85400
O998        O  0.53720939  0.20961890  0.81290813    -0.66700
O999        O  0.96693933  0.36677993  0.72419404    -0.86000
C1000       C  0.50990250  0.22145796  0.82314447     0.86200
C1001       C  0.00856202  0.12264667  0.75619455     1.07800
H1002       H  0.97164038  0.29142865  0.78542444     0.39600
O1003       O  0.97553834  0.28267541  0.75937508    -1.08700
O1004       O  0.50740754  0.29133241  0.69595763    -0.65300
Ni1005     Ni  0.51495631  0.28201395  0.74928671     1.26300
O1006       O  0.98975894  0.20971276  0.80281994    -0.65600
O1007       O  0.50806473  0.34583347  0.75934233    -0.77900
C1008       C  0.58117752  0.24219337  0.75187105     0.85600
O1009       O  0.55689460  0.27456249  0.74189068    -0.65000
Ni1010     Ni  0.94406270  0.32506413  0.72821221     1.27400
Ni1011     Ni  0.98145396  0.21862419  0.74937632     1.26100
H1012       H  0.52324986  0.20939560  0.71266255     0.40100
O1013       O  0.83501529  0.20366036  0.51808950    -0.79800
O1014       O  0.69259840  0.22420389  0.50865168    -0.64500
O1015       O  0.77532040  0.21400942  0.99128723    -1.11100
C1016       C  0.74323127  0.37382704  0.99401577     1.07100
O1017       O  0.66767511  0.29612999  0.98286241    -0.77700
O1018       O  0.71246986  0.29128943  0.93584229    -0.65300
Ni1019     Ni  0.80656483  0.17036115  0.52098967     1.34900
C1020       C  0.73994462  0.28020013  0.92628058     0.85800
O1021       O  0.74050141  0.15495406  0.48893829    -0.78300
O1022       O  0.78369113  0.12839025  0.52531858    -0.88500
C1023       C  0.66788213  0.25890852  0.99644452     0.85400
O1024       O  0.79095101  0.20532946  0.56514438    -0.66700
O1025       O  0.72063989  0.36781163  0.97422392    -0.86000
C1026       C  0.76355436  0.21536447  0.57469293     0.86200
C1027       C  0.76071367  0.12252671  0.50610721     1.07800
H1028       H  0.72405497  0.29063108  0.53703374     0.39600
O1029       O  0.72751571  0.28245832  0.51080886    -1.08700
O1030       O  0.76168126  0.28655102  0.94769328    -0.65300
Ni1031     Ni  0.76993313  0.27790278  0.00123881     1.26300
O1032       O  0.74218198  0.20840395  0.55312017    -0.65600
O1033       O  0.76342511  0.34147808  0.01132706    -0.77900
C1034       C  0.83423180  0.24095793  0.50395237     0.85600
O1035       O  0.81167906  0.27048688  0.99323149    -0.65000
Ni1036     Ni  0.69700101  0.32752865  0.97939678     1.27400
Ni1037     Ni  0.73358540  0.21842564  0.49991666     1.26100
H1038       H  0.77929660  0.20508696  0.96528278     0.40100
O1039       O  0.83342859  0.19974077  0.76808186    -0.79800
O1040       O  0.68910799  0.22667682  0.75748229    -0.64500
O1041       O  0.77263420  0.21208368  0.74098353    -1.11100
C1042       C  0.74118484  0.37179712  0.74400494     1.07100
O1043       O  0.66566879  0.29334022  0.72925627    -0.77700
O1044       O  0.71164420  0.28892147  0.68414377    -0.65300
Ni1045     Ni  0.80386606  0.16883165  0.77178631     1.34900
C1046       C  0.73936939  0.27824301  0.67565305     0.85800
O1047       O  0.73741347  0.15517692  0.73982528    -0.78300
O1048       O  0.78003766  0.12890910  0.77717512    -0.88500
C1049       C  0.66511272  0.25743864  0.74449280     0.85400
O1050       O  0.78840017  0.20546269  0.81517330    -0.66700
O1051       O  0.71874094  0.36589937  0.72369821    -0.86000
C1052       C  0.76087620  0.21688741  0.82465792     0.86200
C1053       C  0.75763361  0.12278007  0.75708294     1.07800
H1054       H  0.72146781  0.29197248  0.78508962     0.39600
O1055       O  0.72566999  0.28273740  0.75918541    -1.08700
O1056       O  0.76037312  0.28510437  0.69796394    -0.65300
Ni1057     Ni  0.76740870  0.27601235  0.75140259     1.26300
O1058       O  0.73908391  0.21067538  0.80324452    -0.65600
O1059       O  0.76096919  0.33947270  0.76181116    -0.77900
C1060       C  0.83337594  0.23700520  0.75473586     0.85600
O1061       O  0.80911136  0.26882388  0.74423624    -0.65000
Ni1062     Ni  0.69499905  0.32522709  0.72731574     1.27400
Ni1063     Ni  0.73098328  0.21883166  0.74962480     1.26100
H1064       H  0.77639274  0.20338462  0.71490082     0.40100
O1065       O  0.52378304  0.42261311  0.00400739    -0.73400
O1066       O  0.53525952  0.03580674  0.50584332    -0.73400
O1067       O  0.53405704  0.47434239  0.55554552    -0.73500
O1068       O  0.53422265  0.47839863  0.95378708    -0.73500
O1069       O  0.97978982  0.00853531  0.94365639    -0.73400
O1070       O  0.96974483  0.01991445  0.55107859    -0.73400
O1071       O  0.97481471  0.07916394  0.50042431    -0.73400
O1072       O  0.97278460  0.45603957  0.49017491    -0.73500
Ni1073     Ni  0.52973229  0.48141246  0.00743730     1.25400
Ni1074     Ni  0.96856814  0.02036956  0.49745509     1.25400
C1075       C  0.00165282  0.41226536  0.99611455     0.88800
C1076       C  0.00193125  0.08220821  0.50398664     0.88700
C1077       C  0.99469876  0.00379726  0.57158760     0.88800
C1078       C  0.00683892  0.49187479  0.92844944     0.88900
O1079       O  0.52369881  0.04812759  0.75492557    -0.73400
O1080       O  0.51622092  0.42870575  0.74863000    -0.73400
O1081       O  0.51792953  0.48935608  0.69673071    -0.73500
O1082       O  0.52005675  0.48859099  0.80619461    -0.73500
O1083       O  0.96750316  0.01777767  0.79605526    -0.73400
O1084       O  0.98199711  0.00879615  0.69048097    -0.73400
O1085       O  0.96868405  0.45425094  0.73994645    -0.73400
O1086       O  0.97876453  0.07312335  0.74626195    -0.73500
Ni1087     Ni  0.52138256  0.48759037  0.75168238     1.25400
Ni1088     Ni  0.97293738  0.01440104  0.74263289     1.25400
C1089       C  0.49973309  0.08399559  0.75419864     0.88800
C1090       C  0.48954602  0.42457213  0.74553206     0.88700
C1091       C  0.49167719  0.50550347  0.67803411     0.88800
C1092       C  0.49409180  0.00487340  0.82177327     0.88900
O1093       O  0.77290773  0.42356916  0.00311134    -0.73400
O1094       O  0.78094518  0.04116471  0.50946149    -0.73400
O1095       O  0.77011236  0.48552984  0.55954796    -0.73500
O1096       O  0.78161734  0.48029109  0.95269240    -0.73500
O1097       O  0.73087579  0.51180240  0.94142183    -0.73400
O1098       O  0.72057861  0.01703136  0.54771528    -0.73400
O1099       O  0.73028486  0.07344418  0.49758995    -0.73400
O1100       O  0.72061630  0.45438092  0.49102985    -0.73500
Ni1101     Ni  0.77842448  0.48248536  0.00650748     1.25400
Ni1102     Ni  0.72403418  0.01477952  0.49408421     1.25400
C1103       C  0.74629548  0.41960590  0.99603941     0.88800
C1104       C  0.75711182  0.07689886  0.50443676     0.88700
C1105       C  0.74404302  0.00215832  0.57105827     0.88800
C1106       C  0.75795837  0.49479183  0.92949819     0.88900
O1107       O  0.72945581  0.50955043  0.69132046    -0.73400
O1108       O  0.71941681  0.01619633  0.79786741    -0.73400
O1109       O  0.72816978  0.07285822  0.74751968    -0.73500
O1110       O  0.72049913  0.45292053  0.74110616    -0.73500
O1111       O  0.77121282  0.42125766  0.75306677    -0.73400
O1112       O  0.77888854  0.04146533  0.75962642    -0.73400
O1113       O  0.77013360  0.48465831  0.80920061    -0.73400
O1114       O  0.78018191  0.47803799  0.70274026    -0.73500
Ni1115     Ni  0.72268590  0.01397962  0.74400924     1.25400
Ni1116     Ni  0.77690224  0.48020015  0.75644043     1.25400
C1117       C  0.75661381  0.49281720  0.67950264     0.88800
C1118       C  0.74306243  0.50171728  0.82114793     0.88700
C1119       C  0.75474055  0.07686418  0.75472640     0.88800
C1120       C  0.74452153  0.41745373  0.74608464     0.88900
C1121       C  0.76234892  0.49149220  0.88847552    -0.15400
C1122       C  0.73868931  0.50504073  0.86217512    -0.30600
H1123       H  0.78575873  0.47733043  0.87973596     0.13600
H1124       H  0.71537108  0.01970492  0.87094018     0.14200
C1125       C  0.73807203  0.50551110  0.61209263    -0.15400
C1126       C  0.76135257  0.49027373  0.63859808    -0.30600
H1127       H  0.71461224  0.52042497  0.62054460     0.13600
H1128       H  0.78562359  0.97456804  0.63037639     0.14200
C1129       C  0.49212232  0.50584621  0.86330290    -0.15400
C1130       C  0.00885982  0.49079274  0.88703132    -0.30600
H1131       H  0.96153753  0.02105901  0.86980987     0.13600
H1132       H  0.53916278  0.47509880  0.87985746     0.14200
C1133       C  0.98852243  0.50704634  0.61152069    -0.15400
C1134       C  0.48859080  0.50659250  0.63622052    -0.30600
H1135       H  0.53528257  0.47396431  0.62761743     0.13600
H1136       H  0.03849956  0.97312072  0.63039944     0.14200
C1137       C  0.75374362  0.23852705  0.86068728    -0.12200
C1138       C  0.74709729  0.25870812  0.89020896    -0.13800
C1139       C  0.74782534  0.25662331  0.63993374    -0.12200
C1140       C  0.75583195  0.23648720  0.61075402    -0.13800
C1141       C  0.86243145  0.24332219  0.75143806    -0.12200
C1142       C  0.88685516  0.24861949  0.74868974    -0.13800
C1143       C  0.61058333  0.24795063  0.74890415    -0.12200
C1144       C  0.63561544  0.25178155  0.74693796    -0.13800
C1145       C  0.86271853  0.24904446  0.50084282    -0.12200
C1146       C  0.89012012  0.24968892  0.00113180    -0.13800
C1147       C  0.61572712  0.24065739  0.50469497    -0.12200
C1148       C  0.63897157  0.25221528  0.99965348    -0.13800
C1149       C  0.99795781  0.25446052  0.89092929    -0.12200
C1150       C  0.50361096  0.24189153  0.85969564    -0.13800
C1151       C  0.50387603  0.23688599  0.61123827    -0.12200
C1152       C  0.49524074  0.25949679  0.63923562    -0.13800
O1153       O  0.58553337  0.70393795  0.01941249    -0.79800
O1154       O  0.94380719  0.72121803  0.00771943    -0.64500
O1155       O  0.52721715  0.70746943  0.49256965    -1.11100
C1156       C  0.49612795  0.86690029  0.49477086     1.07100
O1157       O  0.91599801  0.79379956  0.47985128    -0.77700
O1158       O  0.96042665  0.79308245  0.43402343    -0.65300
Ni1159     Ni  0.55671430  0.67132328  0.02199709     1.34900
C1160       C  0.98794242  0.78312172  0.42494546     0.85000
O1161       O  0.99292123  0.65039900  0.99053430    -0.78300
O1162       O  0.53362723  0.62994277  0.02622208    -0.88500
C1163       C  0.91678283  0.75687824  0.49447024     0.85400
O1164       O  0.54061317  0.70699854  0.06565539    -0.66700
O1165       O  0.96593320  0.87060750  0.47402233    -0.86000
C1166       C  0.51307816  0.71738975  0.07481536     0.86200
C1167       C  0.01374441  0.61811581  0.00737404     1.07800
H1168       H  0.97665020  0.78708319  0.03707859     0.39600
O1169       O  0.98011744  0.77851399  0.01091936    -1.08700
O1170       O  0.51265539  0.77992495  0.44852343    -0.65300
Ni1171     Ni  0.52168107  0.77123329  0.50189214     1.26300
O1172       O  0.99306804  0.70521574  0.05393666    -0.65600
O1173       O  0.51598508  0.83434635  0.51197456    -0.77900
C1174       C  0.58529990  0.74030520  0.00426611     0.85600
O1175       O  0.56265571  0.76395537  0.49208353    -0.65000
Ni1176     Ni  0.94391049  0.82781810  0.47779262     1.27400
Ni1177     Ni  0.98565563  0.71431990  0.00055234     1.26100
H1178       H  0.53123694  0.69825781  0.46661448     0.40100
O1179       O  0.58356780  0.70113123  0.26817376    -0.79800
O1180       O  0.93826928  0.73317385  0.25729813    -0.64500
O1181       O  0.52298527  0.71308225  0.24057487    -1.11100
C1182       C  0.49049032  0.87302069  0.24420421     1.07100
O1183       O  0.91501062  0.79938169  0.22859772    -0.77700
O1184       O  0.96091715  0.79394240  0.18321778    -0.65300
Ni1185     Ni  0.55419938  0.66960712  0.27117955     1.34900
C1186       C  0.98866142  0.78189240  0.17451115     0.85800
O1187       O  0.98454023  0.66119384  0.23843574    -0.78300
O1188       O  0.53045536  0.62918545  0.27582291    -0.88500
C1189       C  0.91442965  0.76369015  0.24417159     0.85400
O1190       O  0.53862850  0.70528604  0.31497634    -0.66700
O1191       O  0.96906144  0.87057153  0.22300504    -0.86000
C1192       C  0.51112614  0.71597140  0.32436028     0.86200
C1193       C  0.00404994  0.62824623  0.25571949     1.07800
H1194       H  0.97172515  0.79687271  0.28415206     0.39600
O1195       O  0.97556210  0.78761225  0.25816648    -1.08700
O1196       O  0.51000076  0.78652788  0.19795231    -0.65300
Ni1197     Ni  0.51748388  0.77705737  0.25129333     1.26300
O1198       O  0.98790887  0.71531689  0.30194651    -0.65600
O1199       O  0.51062444  0.84071775  0.26174820    -0.77900
C1200       C  0.58352070  0.73842500  0.25480904     0.85600
O1201       O  0.55921862  0.77011367  0.24400514    -0.65000
Ni1202     Ni  0.94484148  0.83054666  0.22656933     1.27400
Ni1203     Ni  0.97977468  0.72414377  0.24851945     1.26100
H1204       H  0.52675762  0.70461814  0.21445912     0.40100
O1205       O  0.83512425  0.70258347  0.02068038    -0.79800
O1206       O  0.69170445  0.72775341  0.00622450    -0.64500
O1207       O  0.77474741  0.71216533  0.49056206    -1.11100
C1208       C  0.74241251  0.87223969  0.49372601     1.07100
O1209       O  0.66751792  0.79287738  0.48109813    -0.77700
O1210       O  0.71243784  0.78926654  0.43466037    -0.65300
Ni1211     Ni  0.80572083  0.67105426  0.02301580     1.34900
C1212       C  0.73999111  0.77852988  0.42548793     0.85800
O1213       O  0.73978444  0.65692887  0.98878738    -0.78300
O1214       O  0.78189160  0.63069372  0.02707806    -0.88500
C1215       C  0.66784213  0.75629688  0.49597780     0.85400
O1216       O  0.78925677  0.70764541  0.06611162    -0.66700
O1217       O  0.71977603  0.86628945  0.47390091    -0.86000
C1218       C  0.76155507  0.71841010  0.07471151     0.86200
C1219       C  0.75955209  0.62467812  0.00668071     1.07800
H1220       H  0.72433090  0.79324682  0.03516601     0.39600
O1221       O  0.72815230  0.78438332  0.00912040    -1.08700
O1222       O  0.76138351  0.78513829  0.44727475    -0.65300
Ni1223     Ni  0.76925473  0.77615541  0.50069931     1.26300
O1224       O  0.74045654  0.71166618  0.05248148    -0.65600
O1225       O  0.76265461  0.83976531  0.51090644    -0.77900
C1226       C  0.83567104  0.73846588  0.00545794     0.85600
O1227       O  0.81073884  0.76890436  0.49266427    -0.65000
Ni1228     Ni  0.69646754  0.82518560  0.47826296     1.27400
Ni1229     Ni  0.73337432  0.72042445  0.99897886     1.26100
H1230       H  0.77852073  0.70335306  0.46449463     0.40100
O1231       O  0.83395703  0.70431690  0.26657406    -0.79800
O1232       O  0.69065373  0.72597149  0.25751841    -0.64500
O1233       O  0.77331094  0.71433459  0.23973017    -1.11100
C1234       C  0.74040934  0.87403721  0.24422912     1.07100
O1235       O  0.66571968  0.79409024  0.23215848    -0.77700
O1236       O  0.71013795  0.79131768  0.18518349    -0.65300
Ni1237     Ni  0.80534024  0.67138089  0.26984370     1.34900
C1238       C  0.73756977  0.78121443  0.17573178     0.85800
O1239       O  0.73907642  0.65602627  0.23852302    -0.78300
O1240       O  0.78248519  0.62971716  0.27463014    -0.88500
C1241       C  0.66614647  0.75697403  0.24624884     0.85400
O1242       O  0.78983147  0.70642575  0.31397873    -0.66700
O1243       O  0.71764484  0.86811549  0.22463500    -0.86000
C1244       C  0.76245996  0.71662962  0.32374665     0.86200
C1245       C  0.75953817  0.62369436  0.25556907     1.07800
H1246       H  0.72247935  0.79207548  0.28576023     0.39600
O1247       O  0.72612989  0.78368630  0.25960622    -1.08700
O1248       O  0.75889801  0.78826802  0.19734528    -0.65300
Ni1249     Ni  0.76734966  0.77832968  0.25058943     1.26300
O1250       O  0.74080624  0.71013837  0.30232765    -0.65600
O1251       O  0.76046841  0.84170416  0.26163357    -0.77900
C1252       C  0.83308902  0.74186439  0.25285130     0.85600
O1253       O  0.80843640  0.77260112  0.24202861    -0.65000
Ni1254     Ni  0.69448653  0.82670925  0.22913107     1.27400
Ni1255     Ni  0.73206749  0.71967043  0.24902286     1.26100
H1256       H  0.77682640  0.70611926  0.21352436     0.40100
O1257       O  0.52736610  0.91516800  0.49900836    -0.73400
O1258       O  0.53183469  0.54261173  0.01039710    -0.73400
O1259       O  0.52197199  0.98595758  0.05972406    -0.73500
O1260       O  0.53143103  0.97540827  0.44861975    -0.73500
O1261       O  0.98332879  0.51165116  0.44093457    -0.73400
O1262       O  0.98338357  0.50670921  0.05359266    -0.73400
O1263       O  0.98490783  0.56755946  0.00177907    -0.73400
O1264       O  0.97508631  0.94938896  0.99471511    -0.73500
Ni1265     Ni  0.53360466  0.97406855  0.50220357     1.25400
Ni1266     Ni  0.97987774  0.50862660  0.99869354     1.25400
C1267       C  0.99096852  0.92333623  0.49562292     0.88800
C1268       C  0.01154266  0.57181396  0.00474302     0.88700
C1269       C  0.00963541  0.49060782  0.07227505     0.88800
C1270       C  0.99534553  0.00342467  0.42799389     0.88900
O1271       O  0.52784865  0.54257122  0.26025425    -0.73400
O1272       O  0.52018388  0.92262033  0.25361516    -0.73400
O1273       O  0.53038115  0.97852171  0.20347260    -0.73500
O1274       O  0.51755189  0.98652512  0.30947038    -0.73500
O1275       O  0.96862959  0.52009082  0.30147656    -0.73400
O1276       O  0.96676160  0.52053856  0.19447245    -0.73400
O1277       O  0.97152696  0.95672006  0.24912500    -0.73400
O1278       O  0.97262335  0.58009855  0.25079846    -0.73500
Ni1279     Ni  0.52591894  0.98132427  0.25709148     1.25400
Ni1280     Ni  0.96640154  0.52112930  0.24780379     1.25400
C1281       C  0.50403248  0.57808808  0.25445934     0.88800
C1282       C  0.49360345  0.91880313  0.24601206     0.88700
C1283       C  0.50721401  0.99327474  0.17959271     0.88800
C1284       C  0.49008895  0.50385963  0.32079589     0.88900
O1285       O  0.77230639  0.92170759  0.50309740    -0.73400
O1286       O  0.78038601  0.54359292  0.00960020    -0.73400
O1287       O  0.77103866  0.98704280  0.05939264    -0.73500
O1288       O  0.78148930  0.97800648  0.45255012    -0.73500
O1289       O  0.73080990  0.01036457  0.44136781    -0.73400
O1290       O  0.72078133  0.51825753  0.04787923    -0.73400
O1291       O  0.72966159  0.57512216  0.99760602    -0.73400
O1292       O  0.72210523  0.95500320  0.99073075    -0.73500
Ni1293     Ni  0.77830836  0.98034513  0.50645144     1.25400
Ni1294     Ni  0.72406845  0.51616962  0.99416647     1.25400
C1295       C  0.74561594  0.91805198  0.49591211     0.88800
C1296       C  0.75631948  0.57899880  0.00461132     0.88700
C1297       C  0.74434617  0.50353642  0.07113914     0.88800
C1298       C  0.75784209  0.99307569  0.42938690     0.88900
O1299       O  0.72963959  0.01144992  0.19118500    -0.73400
O1300       O  0.72015776  0.51806098  0.29768188    -0.73400
O1301       O  0.72957446  0.57422704  0.24711310    -0.73500
O1302       O  0.72005088  0.95520886  0.24092422    -0.73500
O1303       O  0.77071835  0.92309656  0.25297129    -0.73400
O1304       O  0.78022498  0.54238324  0.25942603    -0.73400
O1305       O  0.76992920  0.98610317  0.30921529    -0.73400
O1306       O  0.78030357  0.97957686  0.20288158    -0.73500
Ni1307     Ni  0.72365242  0.51552538  0.24388786     1.25400
Ni1308     Ni  0.77679838  0.98177361  0.25652655     1.25400
C1309       C  0.75684937  0.99440641  0.17950177     0.88800
C1310       C  0.74286461  0.00322811  0.32113402     0.88700
C1311       C  0.75627808  0.57793829  0.25407407     0.88800
C1312       C  0.74393378  0.91958543  0.24600541     0.88900
C1313       C  0.76213755  0.99035638  0.38833146    -0.15400
C1314       C  0.73852055  0.00584874  0.36217587    -0.30600
H1315       H  0.78545611  0.97524571  0.37945314     0.13600
H1316       H  0.71544127  0.52143940  0.37054923     0.14200
C1317       C  0.73876125  0.00683363  0.11188375    -0.15400
C1318       C  0.76184132  0.99152751  0.13860844    -0.30600
H1319       H  0.71525817  0.02194804  0.12014886     0.13600
H1320       H  0.78631221  0.47570755  0.13011980     0.14200
C1321       C  0.48493575  0.00627808  0.36151870    -0.15400
C1322       C  0.99262246  0.00522058  0.38627520    -0.30600
H1323       H  0.96867376  0.52071060  0.37256597     0.13600
H1324       H  0.53165918  0.97518751  0.37772278     0.14200
C1325       C  0.00883261  0.99218762  0.11386556    -0.15400
C1326       C  0.51250493  0.99043365  0.13876108    -0.30600
H1327       H  0.46593406  0.02082134  0.11995989     0.13600
H1328       H  0.96576563  0.52082512  0.12239203     0.14200
C1329       C  0.75515181  0.73739416  0.36001619    -0.12200
C1330       C  0.74775044  0.75721081  0.38948892    -0.13800
C1331       C  0.74534815  0.75999949  0.13972280    -0.12200
C1332       C  0.75325658  0.73992417  0.11049738    -0.13800
C1333       C  0.86151424  0.75012509  0.24956885    -0.12200
C1334       C  0.88538221  0.75714226  0.24683629    -0.13800
C1335       C  0.61266203  0.74484692  0.25188135    -0.12200
C1336       C  0.63721069  0.74998928  0.24941552    -0.13800
C1337       C  0.86515435  0.74378418  0.00266090    -0.12200
C1338       C  0.88822783  0.74920681  0.49755353    -0.13800
C1339       C  0.61414704  0.74725125  0.00098167    -0.12200
C1340       C  0.63921604  0.74914405  0.49952745    -0.13800
C1341       C  0.99579672  0.76206754  0.38892200    -0.12200
C1342       C  0.50378283  0.73607326  0.36078686    -0.13800
C1343       C  0.50512939  0.73872268  0.11071594    -0.12200
C1344       C  0.49707462  0.75873909  0.13989818    -0.13800
O1345       O  0.58700737  0.69976231  0.52294291    -0.79800
O1346       O  0.94132835  0.72673151  0.50653041    -0.64500
O1347       O  0.52520715  0.71378739  0.99090303    -1.11100
C1348       C  0.49321398  0.87361133  0.99412346     1.07100
O1349       O  0.91938641  0.79078622  0.98449891    -0.77700
O1350       O  0.96343924  0.78652990  0.93672474    -0.65300
Ni1351     Ni  0.55869478  0.66606659  0.52445379     1.34900
C1352       C  0.99082650  0.77512737  0.92683319     0.85000
O1353       O  0.99015523  0.65745458  0.48833396    -0.78300
O1354       O  0.53620929  0.62378553  0.52756795    -0.88500
C1355       C  0.91946857  0.75328147  0.99744238     0.85400
O1356       O  0.54159461  0.70188295  0.56769363    -0.66700
O1357       O  0.97223222  0.86270062  0.97540400    -0.86000
C1358       C  0.51390768  0.71227262  0.57622116     0.86200
C1359       C  0.01045910  0.62549834  0.50594549     1.07800
H1360       H  0.97191627  0.79421530  0.53474026     0.39600
O1361       O  0.97584318  0.78566219  0.50867068    -1.08700
O1362       O  0.51111741  0.78670499  0.94744149    -0.65300
Ni1363     Ni  0.51965678  0.77768800  0.00084709     1.26300
O1364       O  0.99052088  0.71248178  0.55197934    -0.65600
O1365       O  0.51335570  0.84105104  0.01117093    -0.77900
C1366       C  0.58682929  0.73495921  0.50606074     0.85600
O1367       O  0.56097029  0.77072727  0.99201418    -0.65000
Ni1368     Ni  0.94861799  0.82220926  0.98075904     1.27400
Ni1369     Ni  0.98252303  0.72132504  0.49855288     1.26100
H1370       H  0.52896705  0.70497979  0.96483091     0.40100
O1371       O  0.58080935  0.70495119  0.76543255    -0.79800
O1372       O  0.93958388  0.72631834  0.75731410    -0.64500
O1373       O  0.51995716  0.71809277  0.73885744    -1.11100
C1374       C  0.48686658  0.87854153  0.74233732     1.07100
O1375       O  0.91536458  0.79380119  0.73072070    -0.77700
O1376       O  0.96054901  0.79040608  0.68468768    -0.65300
Ni1377     Ni  0.55115977  0.67418163  0.76916399     1.34900
C1378       C  0.98812052  0.77997003  0.67565000     0.85800
O1379       O  0.98726788  0.65572724  0.73847863    -0.78300
O1380       O  0.52707773  0.63433300  0.77457597    -0.88500
C1381       C  0.91537413  0.75717634  0.74526581     0.85400
O1382       O  0.53641942  0.71014290  0.81308665    -0.66700
O1383       O  0.96807392  0.86676970  0.72440936    -0.86000
C1384       C  0.50898615  0.72200544  0.82289893     0.86200
C1385       C  0.00725870  0.62313216  0.75570714     1.07800
H1386       H  0.97181151  0.79154043  0.78548081     0.39600
O1387       O  0.97568342  0.78290622  0.75940900    -1.08700
O1388       O  0.50775737  0.79125751  0.69580216    -0.65300
Ni1389     Ni  0.51472820  0.78222857  0.74920604     1.26300
O1390       O  0.98934046  0.70974699  0.80242578    -0.65600
O1391       O  0.50760489  0.84613362  0.75919326    -0.77900
C1392       C  0.58103292  0.74243360  0.75273235     0.85600
O1393       O  0.55681068  0.77482310  0.74254887    -0.65000
Ni1394     Ni  0.94451465  0.82592907  0.72840486     1.27400
Ni1395     Ni  0.98105877  0.71909155  0.74903445     1.26100
H1396       H  0.52348936  0.70939526  0.71273351     0.40100
O1397       O  0.83508888  0.70076894  0.51829995    -0.79800
O1398       O  0.69212676  0.72560995  0.50780547    -0.64500
O1399       O  0.77508552  0.71357017  0.99110670    -1.11100
C1400       C  0.74330031  0.87362773  0.99313810     1.07100
O1401       O  0.66750912  0.79629525  0.98136899    -0.77700
O1402       O  0.71266799  0.79089180  0.93475544    -0.65300
Ni1403     Ni  0.80589180  0.66916353  0.52163823     1.34900
C1404       C  0.74024043  0.77935741  0.92547468     0.85800
O1405       O  0.73970719  0.65519266  0.48902041    -0.78300
O1406       O  0.78223751  0.62864688  0.52646556    -0.88500
C1407       C  0.66750248  0.75926385  0.99511651     0.85400
O1408       O  0.79025069  0.70545064  0.56526042    -0.66700
O1409       O  0.72082087  0.86761070  0.97308273    -0.86000
C1410       C  0.76268709  0.71635064  0.57446327     0.86200
C1411       C  0.75955965  0.62284136  0.50664984     1.07800
H1412       H  0.72398308  0.79137907  0.53543203     0.39600
O1413       O  0.72779902  0.78252858  0.50938116    -1.08700
O1414       O  0.76193563  0.78562381  0.94699564    -0.65300
Ni1415     Ni  0.76984294  0.77748665  0.00059135     1.26300
O1416       O  0.74132393  0.70959867  0.55273788    -0.65600
O1417       O  0.76351548  0.84114298  0.01032188    -0.77900
C1418       C  0.83497155  0.73752356  0.50393835     0.85600
O1419       O  0.81169936  0.76946786  0.99276218    -0.65000
Ni1420     Ni  0.69701157  0.82747245  0.97808473     1.27400
Ni1421     Ni  0.73333759  0.71859200  0.49934072     1.26100
H1422       H  0.77925440  0.70427798  0.96520352     0.40100
O1423       O  0.83343140  0.70047837  0.76717027    -0.79800
O1424       O  0.68926280  0.72610918  0.75743984    -0.64500
O1425       O  0.77258171  0.71226697  0.74021429    -1.11100
C1426       C  0.74096232  0.87196736  0.74420727     1.07100
O1427       O  0.66547076  0.79333538  0.73018817    -0.77700
O1428       O  0.71086570  0.78975669  0.68436802    -0.65300
Ni1429     Ni  0.80414776  0.66893115  0.77059119     1.34900
C1430       C  0.73848602  0.77927604  0.67548518     0.85800
O1431       O  0.73753366  0.65501153  0.73912290    -0.78300
O1432       O  0.78061774  0.62848488  0.77571598    -0.88500
C1433       C  0.66512147  0.75710038  0.74505646     0.85400
O1434       O  0.78880222  0.70479375  0.81435119    -0.66700
O1435       O  0.71825009  0.86628858  0.72433149    -0.86000
C1436       C  0.76135759  0.71587006  0.82403305     0.86200
C1437       C  0.75784643  0.62258744  0.75624665     1.07800
H1438       H  0.72173427  0.79135368  0.78528426     0.39600
O1439       O  0.72568108  0.78250138  0.75926131    -1.08700
O1440       O  0.75967467  0.78585571  0.69762974    -0.65300
Ni1441     Ni  0.76726034  0.77615646  0.75095971     1.26300
O1442       O  0.73951593  0.70974081  0.80269640    -0.65600
O1443       O  0.76083115  0.83952485  0.76176685    -0.77900
C1444       C  0.83315740  0.73785430  0.75379304     0.85600
O1445       O  0.80877614  0.76937137  0.74321594    -0.65000
Ni1446     Ni  0.69466644  0.82539607  0.72804428     1.27400
Ni1447     Ni  0.73104543  0.71861997  0.74922900     1.26100
H1448       H  0.77617055  0.70385500  0.71405241     0.40100
O1449       O  0.52362418  0.92253109  0.00343661    -0.73400
O1450       O  0.53607650  0.53555156  0.50566619    -0.73400
O1451       O  0.53332155  0.97432969  0.55545854    -0.73500
O1452       O  0.53414321  0.97852966  0.95352326    -0.73500
O1453       O  0.98109883  0.50778566  0.94421572    -0.73400
O1454       O  0.97077508  0.51948429  0.54691352    -0.73400
O1455       O  0.98091580  0.57557869  0.49686604    -0.73400
O1456       O  0.96657169  0.95891844  0.49419974    -0.73500
Ni1457     Ni  0.52973840  0.98121013  0.00714680     1.25400
Ni1458     Ni  0.97517733  0.51682298  0.49334562     1.25400
C1459       C  0.99914126  0.91354971  0.99606085     0.88800
C1460       C  0.00748771  0.57951823  0.50439048     0.88700
C1461       C  0.99393331  0.50459135  0.57075189     0.88800
C1462       C  0.00579488  0.99228953  0.92851520     0.88900
O1463       O  0.52380414  0.54820283  0.75507431    -0.73400
O1464       O  0.51581851  0.92890099  0.74845483    -0.73400
O1465       O  0.51748641  0.98949617  0.69655175    -0.73500
O1466       O  0.51984041  0.98868334  0.80602552    -0.73500
O1467       O  0.96644389  0.51821289  0.79671757    -0.73400
O1468       O  0.97868936  0.51058101  0.69044567    -0.73400
O1469       O  0.97062405  0.95347678  0.73955606    -0.73400
O1470       O  0.97683574  0.57418714  0.74658749    -0.73500
Ni1471     Ni  0.52108529  0.98766602  0.75150607     1.25400
Ni1472     Ni  0.97083684  0.51542976  0.74303979     1.25400
C1473       C  0.49976633  0.58398759  0.75418417     0.88800
C1474       C  0.48913673  0.92483002  0.74532688     0.88700
C1475       C  0.49119943  0.00579931  0.67794877     0.88800
C1476       C  0.49428003  0.50462286  0.82189005     0.88900
O1477       O  0.77280073  0.92361335  0.00297488    -0.73400
O1478       O  0.77982024  0.54171017  0.51002812    -0.73400
O1479       O  0.77124167  0.98505651  0.55934116    -0.73500
O1480       O  0.78168730  0.98037120  0.95275248    -0.73500
O1481       O  0.73096490  0.01178759  0.94127324    -0.73400
O1482       O  0.71947292  0.51767370  0.54779788    -0.73400
O1483       O  0.72920098  0.57392452  0.49762114    -0.73400
O1484       O  0.72165579  0.95369475  0.49088478    -0.73500
Ni1485     Ni  0.77829135  0.98255722  0.00658071     1.25400
Ni1486     Ni  0.72305792  0.51532458  0.49410211     1.25400
C1487       C  0.74623694  0.91958178  0.99563155     0.88800
C1488       C  0.75597253  0.57736538  0.50482023     0.88700
C1489       C  0.74292144  0.50271626  0.57119436     0.88800
C1490       C  0.75806842  0.99477715  0.92945691     0.88900
O1491       O  0.72986220  0.00950050  0.69116781    -0.73400
O1492       O  0.71939339  0.51623487  0.79797090    -0.73400
O1493       O  0.72811231  0.57287758  0.74745145    -0.73500
O1494       O  0.72053666  0.95301934  0.74087602    -0.73500
O1495       O  0.77119544  0.92123625  0.75320469    -0.73400
O1496       O  0.77883544  0.54140510  0.75947234    -0.73400
O1497       O  0.77015052  0.98473320  0.80922794    -0.73400
O1498       O  0.78053156  0.97776687  0.70291640    -0.73500
Ni1499     Ni  0.72255245  0.51398405  0.74414673     1.25400
Ni1500     Ni  0.77700264  0.98016047  0.75654986     1.25400
C1501       C  0.75709118  0.99255081  0.67951982     0.88800
C1502       C  0.74307424  0.00178797  0.82111056     0.88700
C1503       C  0.75474345  0.57680714  0.75439661     0.88800
C1504       C  0.74447502  0.91752240  0.74610792     0.88900
C1505       C  0.76244485  0.99137540  0.88842318    -0.15400
C1506       C  0.73875222  0.00522277  0.86215526    -0.30600
H1507       H  0.78583060  0.97689438  0.87965080     0.13600
H1508       H  0.71528093  0.51920403  0.87091873     0.14200
C1509       C  0.73905248  0.00505745  0.61194120    -0.15400
C1510       C  0.76212379  0.98971029  0.63864797    -0.30600
H1511       H  0.71555589  0.02021282  0.62022149     0.13600
H1512       H  0.78480978  0.47542025  0.63012379     0.14200
C1513       C  0.49197762  0.00631955  0.86318345    -0.15400
C1514       C  0.00847740  0.99098594  0.88722779    -0.30600
H1515       H  0.96171912  0.52106866  0.87070597     0.13600
H1516       H  0.53900811  0.97537505  0.87964114     0.14200
C1517       C  0.99179878  0.00514495  0.61285616    -0.15400
C1518       C  0.48800095  0.00692575  0.63615354    -0.30600
H1519       H  0.53456371  0.97340953  0.62741787     0.13600
H1520       H  0.03495507  0.47584606  0.63044843     0.14200
C1521       C  0.75430970  0.73722675  0.86013951    -0.12200
C1522       C  0.74755437  0.75750869  0.88958025    -0.13800
C1523       C  0.74667992  0.75809436  0.63953112    -0.12200
C1524       C  0.75477493  0.73797237  0.61035398    -0.13800
C1525       C  0.86205949  0.74473036  0.75061747    -0.12200
C1526       C  0.88639435  0.75040863  0.74808156    -0.13800
C1527       C  0.61053419  0.74794087  0.74987687    -0.12200
C1528       C  0.63565578  0.75142984  0.74780687    -0.13800
C1529       C  0.86391941  0.74377426  0.50041859    -0.12200
C1530       C  0.89018988  0.74736461  0.00047177    -0.13800
C1531       C  0.61537755  0.74246945  0.50278248    -0.12200
C1532       C  0.63847889  0.75280724  0.99820920    -0.13800
C1533       C  0.99755096  0.75458847  0.89040324    -0.12200
C1534       C  0.50237059  0.74245371  0.85937127    -0.13800
C1535       C  0.50502319  0.73602685  0.61111874    -0.12200
C1536       C  0.49627486  0.75874789  0.63903656    -0.13800
loop_ 
_geom_bond_atom_site_label_1 
_geom_bond_atom_site_label_2 
_geom_bond_distance 
_geom_bond_site_symmetry_2 
_ccdc_geom_bond_type 
O1           Ni7   1.932       .  S
O1           C22   1.270       .  A
O2          Ni25   1.903   1_554  S
O2          C203   1.266   1_554  A
O3           H26   0.966       .  S
O3          Ni19   1.922       .  S
O3         Ni199   1.921       .  S
O3         Ni985   1.911   1_455  S
C4           O21   1.266   1_655  A
C4          O781   1.274       .  A
C4          C883   1.465       .  S
O5          Ni24   1.929       .  S
O5           C11   1.271       .  A
O6          Ni24   1.902       .  S
O6            C8   1.269       .  A
Ni7          O10   1.935       .  S
Ni7          O12   1.907       .  S
Ni7         O195   1.923   1_554  S
C8          O786   1.271       .  A
C8          C189   1.422       .  S
O9          Ni25   1.901       .  S
O9           C15   1.267   1_556  A
O10         C783   1.274       .  A
C11         O194   1.269       .  A
C11         C186   1.442       .  S
O12          C14   1.269       .  A
O13         Ni24   1.943       .  S
O13         C772   1.274       .  A
C14         O788   1.269   1_455  A
C14         C191   1.425       .  S
C15         O778   1.273       .  A
C15         C116   1.466       .  S
H16          O17   0.966       .  S
O17         Ni25   1.923   1_554  S
O17        Ni979   1.911       .  S
O17        Ni216   1.921   1_554  S
O18         Ni19   1.928       .  S
O18         C776   1.271   1_455  A
Ni19         O23   1.902       .  S
Ni19         O21   1.899       .  S
Ni19        O977   1.911   1_455  S
O20         Ni25   1.928   1_554  S
O20         C782   1.271       .  A
C22         O215   1.262   1_554  A
C22         C187   1.430       .  S
O23         C214   1.265       .  A
Ni24        O209   1.922       .  S
Ni25        O963   1.909       .  S
O27         Ni33   1.922       .  S
O27          C48   1.269       .  A
O28         Ni51   1.896       .  S
O28          C37   1.264       .  A
O29          H52   0.966       .  S
O29         Ni33   1.923       .  S
O29         Ni45   1.926       .  S
O29        Ni819   1.912   1_455  S
C30          O47   1.270   1_655  A
C30         O807   1.272       .  A
C30         C130   1.465       .  S
O31         Ni50   1.929       .  S
O31          C37   1.270       .  A
O32         Ni50   1.904       .  S
O32          C34   1.269       .  A
Ni33         O36   1.937       .  S
Ni33         O38   1.902       .  S
C34         O812   1.270       .  A
C34         C960   1.423       .  S
O35         Ni51   1.898       .  S
O35          C41   1.265       .  A
O36         C809   1.272       .  A
C37         C182   1.432       .  S
O38          C40   1.269       .  A
O39         Ni50   1.937       .  S
O39         C798   1.273       .  A
C40         O814   1.271   1_455  A
C40         C190   1.422       .  S
C41         O804   1.274       .  A
C41         C897   1.467       .  S
H42          O43   0.966       .  S
O43         Ni51   1.918       .  S
O43         Ni50   1.922       .  S
O43        Ni813   1.909       .  S
O44         Ni45   1.927       .  S
O44         C802   1.270   1_455  A
Ni45         O49   1.911       .  S
Ni45         O47   1.903       .  S
Ni45        O811   1.912   1_455  S
O46         Ni51   1.929       .  S
O46         C808   1.271       .  A
C48          O49   1.268       .  A
C48         C183   1.437       .  S
Ni51        O797   1.910       .  S
O53         Ni59   1.930       .  S
O53          C74   1.271       .  A
O54         Ni77   1.893   1_554  S
O54         C255   1.262   1_554  A
O55          H78   0.966       .  S
O55         Ni71   1.919       .  S
O55        Ni251   1.922       .  S
O55        Ni269   1.912       .  S
C56          O73   1.267       .  A
C56          O65   1.273       .  A
C56         C143   1.465       .  S
O57         Ni76   1.931       .  S
O57          C63   1.270       .  A
O58         Ni76   1.902       .  S
O58          C60   1.269       .  A
Ni59         O62   1.942       .  S
Ni59         O64   1.903       .  S
Ni59        O247   1.922   1_554  S
C60          O70   1.272       .  A
C60         C178   1.422       .  S
O61         Ni77   1.896       .  S
O61          C67   1.265   1_556  A
O62          C67   1.274       .  A
C63         O246   1.265       .  A
C63         C188   1.439       .  S
O64          C66   1.268       .  A
O65         Ni76   1.937       .  S
C66          O72   1.270       .  A
C66         C180   1.422       .  S
C67         C144   1.466       .  S
H68          O69   0.966       .  S
O69         Ni77   1.920   1_554  S
O69        Ni263   1.910       .  S
O69        Ni268   1.923   1_554  S
O70         Ni71   1.930       .  S
Ni71         O75   1.911       .  S
Ni71         O73   1.900       .  S
Ni71        O261   1.916       .  S
O72         Ni77   1.927   1_554  S
C74         O267   1.266   1_554  A
C74         C185   1.436       .  S
O75         C266   1.268       .  A
Ni76        O261   1.923       .  S
Ni77        O247   1.908       .  S
O79         Ni85   1.927       .  S
O79         C100   1.269       .  A
O80        Ni103   1.908       .  S
O80          C89   1.268       .  A
O81         H104   0.966       .  S
O81         Ni85   1.922       .  S
O81        Ni103   1.913       .  S
O81         Ni97   1.923       .  S
C82          O99   1.266       .  A
C82          O91   1.273       .  A
C82         C160   1.463       .  S
O83        Ni102   1.925       .  S
O83          C89   1.270       .  A
O84        Ni102   1.903       .  S
O84          C86   1.269       .  A
Ni85         O88   1.935       .  S
Ni85         O90   1.902       .  S
C86          O96   1.270       .  A
C86         C179   1.422       .  S
O87        Ni103   1.903       .  S
O87          C93   1.268       .  A
O88          C93   1.272       .  A
C89         C184   1.437       .  S
O90          C92   1.269       .  A
O91        Ni102   1.936       .  S
C92          O98   1.273       .  A
C92         C177   1.422       .  S
C93         C159   1.466       .  S
H94          O95   0.966       .  S
O95        Ni103   1.920       .  S
O95         Ni97   1.908       .  S
O95        Ni102   1.921       .  S
O96         Ni97   1.928       .  S
Ni97        O101   1.897       .  S
Ni97         O99   1.899       .  S
O98        Ni103   1.931       .  S
C100        O101   1.264       .  A
C100        C181   1.432       .  S
O105       Ni113   1.922       .  S
O105        C883   1.282   1_455  A
O106       Ni689   1.923   1_545  S
O106        C884   1.283       .  A
O107       Ni305   1.902       .  S
O107       C1269   1.275       .  A
O108       Ni113   1.934       .  S
O108        C886   1.283       .  A
O109       Ni306   1.948       .  S
O109        C502   1.288   1_545  A
O110       Ni114   1.932   1_554  S
O110        C117   1.284       .  A
O111       Ni114   1.914       .  S
O111        C116   1.279   1_556  A
O112       Ni498   1.914       .  S
O112        C307   1.280       .  A
Ni113       O682   1.924       .  S
Ni113       O299   1.926       .  S
Ni113     Ni1458   2.388   1_455  S
Ni114       O301   1.923       .  S
Ni114       O496   1.913   1_545  S
Ni114     Ni1457   2.388   1_546  S
C115        O873   1.285       .  A
C115        O304   1.277       .  A
C115        C772   1.467       .  S
C116        O874   1.282       .  A
C117       O1259   1.282   1_545  A
C117        C557   1.488       .  S
C118        O876   1.278       .  A
C118        O493   1.287       .  A
C118        C170   1.484       .  S
O119       Ni511   1.919   1_545  S
O119        C129   1.281       .  A
O120       Ni127   1.905       .  S
O120        C130   1.276   1_455  A
O121       Ni127   1.954       .  S
O121        C131   1.291   1_455  A
O122       Ni127   1.947       .  S
O122        C516   1.287   1_455  A
O123       Ni128   1.932       .  S
O123        C900   1.283       .  A
O124       Ni128   1.924       .  S
O124       C1283   1.282   1_545  A
O125       Ni512   1.920       .  S
O125        C898   1.282       .  A
O126       Ni128   1.922       .  S
O126        C897   1.282       .  A
Ni127       O503   1.905       .  S
Ni127     Ni1280   2.389   1_455  S
Ni128       O509   1.920   1_545  S
Ni128     Ni1279   2.388   1_545  S
C129        O894   1.280   1_455  A
C129        C809   1.463       .  S
C130        O893   1.285       .  A
C131       O1276   1.275       .  A
C131        C174   1.487       .  S
C132        O506   1.281       .  A
C132        O891   1.286   1_465  A
C132        C553   1.492       .  S
O133       Ni141   1.916       .  S
O133        C143   1.280       .  A
O134       Ni717   1.914   1_545  S
O134        C144   1.280       .  A
O135       Ni333   1.926       .  S
O135        C529   1.283       .  A
O136       Ni141   1.931       .  S
O136        C146   1.284       .  A
O137       Ni718   1.924       .  S
O137        C146   1.282       .  A
O138       Ni142   1.927   1_554  S
O138        C145   1.283       .  A
O139       Ni142   1.920       .  S
O139        C144   1.282   1_556  A
O140       Ni526   1.921       .  S
O140        C335   1.282       .  A
Ni141       O710   1.916       .  S
Ni141       O327   1.924       .  S
Ni141      Ni718   2.389       .  S
Ni142       O713   1.921       .  S
Ni142       O524   1.919   1_545  S
Ni142      Ni717   2.389   1_546  S
C143        O332   1.281       .  A
C145        O519   1.283   1_545  A
C145        C549   1.487       .  S
C146        C161   1.487       .  S
O147       Ni539   1.924       .  S
O147        C157   1.282       .  A
O148       Ni155   1.934       .  S
O148        C542   1.285       .  A
O149       Ni155   1.916       .  S
O149        C159   1.280       .  A
O150       Ni539   1.913       .  S
O150        C160   1.280       .  A
O151       Ni156   1.917       .  S
O151        C160   1.281       .  A
O152       Ni540   1.920   1_545  S
O152        C159   1.282       .  A
O153       Ni156   1.924       .  S
O153        C158   1.282       .  A
O154       Ni156   1.931       .  S
O154        C157   1.284       .  A
Ni155       O531   1.927       .  S
Ni155       O534   1.916   1_545  S
Ni155      Ni540   2.389   1_545  S
Ni156       O536   1.916       .  S
Ni156      Ni539   2.389       .  S
C157        C166   1.487       .  S
C158        O532   1.284       .  A
C158        C162   1.487       .  S
C161        C162   1.350       .  D
C161        H163   1.086       .  S
C162        H548   1.086       .  S
H164        C546   1.086       .  S
C165        C529   1.486       .  S
C165        C166   1.349       .  D
C165        H167   1.086       .  S
C166        H552   1.086       .  S
H168        C550   1.086       .  S
C169        C516   1.486       .  S
C169        C938   1.347   1_655  D
C169       H1323   1.087       .  S
C170        C937   1.346       .  D
C170        H940   1.087       .  S
H171       C1321   1.086       .  S
H172        C938   1.086       .  S
C173        C501   1.488       .  S
C173        C942   1.350       .  D
C173        H943   1.086       .  S
C174        C941   1.339   1_655  D
C174       H1328   1.087       .  S
H175        C941   1.087       .  S
H176       C1326   1.086       .  S
C177        C178   1.198       .  T
C179        C180   1.198       .  T
C181        C182   1.204       .  T
C183        C184   1.207       .  T
C185        C378   1.207   1_554  T
C186        C377   1.210       .  T
C187        C380   1.203       .  T
C188        C379   1.208       .  T
C189        C958   1.198       .  T
C190        C957   1.198   1_455  T
C191        C192   1.200   1_455  T
C192        C802   1.425       .  S
O193       Ni199   1.933       .  S
O193        C214   1.271       .  A
O194       Ni217   1.913       .  S
O195        H218   0.966       .  S
O195       Ni793   1.911   1_456  S
O195       Ni211   1.912   1_556  S
C196        O213   1.262   1_656  A
C196        O973   1.273       .  A
C196       C1075   1.465   1_655  S
O197       Ni216   1.929       .  S
O197        C203   1.270       .  A
O198       Ni216   1.901       .  S
O198        C200   1.269       .  A
Ni199       O202   1.940       .  S
Ni199       O204   1.905       .  S
C200        O978   1.272       .  A
C200        C381   1.422       .  S
O201       Ni217   1.906       .  S
O201        C207   1.271       .  A
O202        C975   1.274       .  A
C203        C378   1.436       .  S
O204        C206   1.269       .  A
O205       Ni216   1.939       .  S
O205        C964   1.273       .  A
C206        O980   1.271   1_455  A
C206        C383   1.423       .  S
C207        O970   1.272       .  A
C207        C308   1.464       .  S
H208        O209   0.966       .  S
O209       Ni217   1.929       .  S
O209       Ni787   1.912       .  S
O210       Ni211   1.930   1_556  S
O210        C968   1.272   1_455  A
Ni211       O215   1.890   1_554  S
Ni211       O213   1.896       .  S
Ni211       O785   1.912   1_455  S
O212       Ni217   1.926       .  S
O212        C974   1.269       .  A
C214        C379   1.439       .  S
Ni217       O771   1.912       .  S
O219       Ni225   1.925       .  S
O219        C240   1.269       .  A
O220       Ni243   1.890       .  S
O220        C229   1.261       .  A
O221        H244   0.966       .  S
O221       Ni225   1.923       .  S
O221      Ni1011   1.910   1_455  S
O221       Ni237   1.923       .  S
C222        O239   1.267   1_655  A
C222        O999   1.273       .  A
C222        C322   1.465       .  S
O223       Ni242   1.929       .  S
O223        C229   1.269       .  A
O224       Ni242   1.906       .  S
O224        C226   1.268       .  A
Ni225       O228   1.936       .  S
Ni225       O230   1.901       .  S
C226       O1004   1.269       .  A
C226       C1152   1.424       .  S
O227       Ni243   1.894       .  S
O227        C233   1.262       .  A
O228       C1001   1.272       .  A
C229        C374   1.428       .  S
O230        C232   1.269       .  A
O231       Ni242   1.933       .  S
O231        C990   1.273       .  A
C232       O1006   1.272   1_455  A
C232        C382   1.422       .  S
C233        O996   1.274       .  A
C233       C1089   1.465       .  S
H234        O235   0.966       .  S
O235       Ni243   1.911       .  S
O235      Ni1005   1.911       .  S
O235       Ni242   1.923       .  S
O236       Ni237   1.927       .  S
O236        C994   1.270   1_455  A
Ni237       O241   1.902       .  S
Ni237       O239   1.900       .  S
Ni237      O1003   1.910   1_455  S
O238       Ni243   1.931       .  S
O238       C1000   1.272       .  A
C240        O241   1.266       .  A
C240        C375   1.434       .  S
Ni243       O989   1.912       .  S
O245       Ni251   1.930       .  S
O245        C266   1.270       .  A
O246       Ni269   1.903       .  S
O247        H270   0.966       .  S
O247       Ni263   1.921   1_556  S
C248        O265   1.267   1_556  A
C248        O257   1.273       .  A
C248        C335   1.467       .  S
O249       Ni268   1.929       .  S
O249        C255   1.270       .  A
O250       Ni268   1.902       .  S
O250        C252   1.269       .  A
Ni251       O254   1.939       .  S
Ni251       O256   1.904       .  S
C252        O262   1.272       .  A
C252        C370   1.422       .  S
O253       Ni269   1.897       .  S
O253        C259   1.265       .  A
O254        C259   1.274       .  A
C255        C380   1.430   1_556  S
O256        C258   1.269       .  A
O257       Ni268   1.938       .  S
C258        O264   1.271       .  A
C258        C372   1.423       .  S
C259        C336   1.465       .  S
H260        O261   0.966       .  S
O261       Ni269   1.921       .  S
O262       Ni263   1.930   1_556  S
Ni263       O267   1.903   1_554  S
Ni263       O265   1.902       .  S
O264       Ni269   1.929       .  S
C266        C377   1.442       .  S
O271       Ni277   1.926       .  S
O271        C292   1.269       .  A
O272       Ni295   1.901       .  S
O272        C281   1.266       .  A
O273        H296   0.966       .  S
O273       Ni277   1.923       .  S
O273       Ni295   1.909       .  S
O273       Ni289   1.922       .  S
C274        O291   1.265       .  A
C274        O283   1.274       .  A
C274        C352   1.466       .  S
O275       Ni294   1.928       .  S
O275        C281   1.270       .  A
O276       Ni294   1.904       .  S
O276        C278   1.268       .  A
Ni277       O280   1.935       .  S
Ni277       O282   1.901       .  S
C278        O288   1.270       .  A
C278        C371   1.423       .  S
O279       Ni295   1.901       .  S
O279        C285   1.267       .  A
O280        C285   1.272       .  A
C281        C376   1.434       .  S
O282        C284   1.269       .  A
O283       Ni294   1.941       .  S
C284        O290   1.272       .  A
C284        C369   1.422       .  S
C285        C351   1.465       .  S
H286        O287   0.966       .  S
O287       Ni295   1.920       .  S
O287       Ni289   1.907       .  S
O287       Ni294   1.922       .  S
O288       Ni289   1.927       .  S
Ni289       O293   1.892       .  S
Ni289       O291   1.898       .  S
O290       Ni295   1.930       .  S
C292        O293   1.262       .  A
C292        C373   1.428       .  S
O297       Ni305   1.929   1_556  S
O297       C1075   1.284       .  A
O298       Ni497   1.907   1_545  S
O298       C1076   1.278       .  A
O299       C1461   1.283   1_455  A
O300       Ni305   1.910   1_556  S
O300       C1078   1.278       .  A
O301        C694   1.284   1_545  A
O302       Ni306   1.956       .  S
O302        C309   1.292   1_545  A
O303       Ni306   1.905       .  S
O303        C308   1.276       .  A
O304       Ni690   1.907       .  S
Ni305       O490   1.927       .  S
Ni305     Ni1266   2.389   1_454  S
Ni306       O688   1.906   1_545  S
Ni306     Ni1265   2.389   1_545  S
C307       O1065   1.282   1_556  A
C307        C964   1.466       .  S
C308       O1066   1.285       .  A
C309       O1451   1.274       .  A
C309        C749   1.487       .  S
C310       O1068   1.283       .  A
C310        O685   1.284       .  A
C310        C362   1.492       .  S
O311       Ni703   1.918   1_545  S
O311        C321   1.281       .  A
O312       Ni319   1.914       .  S
O312        C322   1.279   1_455  A
O313       Ni319   1.930       .  S
O313        C323   1.284       .  A
O314       Ni319   1.922       .  S
O314        C708   1.283   1_455  A
O315       Ni320   1.908       .  S
O315       C1092   1.278       .  A
O316       Ni320   1.900       .  S
O316       C1475   1.274       .  A
O317       Ni704   1.927       .  S
O317       C1090   1.284       .  A
O318       Ni320   1.929       .  S
O318       C1089   1.284       .  A
Ni319       O695   1.913       .  S
Ni319     Ni1472   2.388   1_455  S
Ni320       O701   1.929   1_545  S
Ni320     Ni1471   2.389   1_545  S
C321       O1086   1.280   1_455  A
C321       C1001   1.465       .  S
C322       O1085   1.282       .  A
C323       O1468   1.283   1_455  A
C323        C366   1.488       .  S
C324        O698   1.283   1_645  A
C324       O1083   1.283       .  A
C324        C745   1.491       .  S
O325       Ni333   1.916       .  S
O325        C335   1.280   1_554  A
O326       Ni525   1.914   1_545  S
O326        C336   1.280       .  A
O327        C721   1.282       .  A
O328       Ni333   1.933   1_556  S
O328        C338   1.284       .  A
O329       Ni526   1.922       .  S
O329        C338   1.282       .  A
O330       Ni334   1.927       .  S
O330        C337   1.282       .  A
O331       Ni334   1.919       .  S
O331        C336   1.281       .  A
O332       Ni718   1.918       .  S
Ni333       O518   1.916       .  S
Ni333      Ni526   2.389   1_554  S
Ni334       O521   1.919       .  S
Ni334       O716   1.917   1_545  S
Ni334      Ni525   2.389   1_545  S
C337        O711   1.283   1_545  A
C337        C741   1.487       .  S
C338        C353   1.487       .  S
O339       Ni731   1.926       .  S
O339        C349   1.283       .  A
O340       Ni347   1.936       .  S
O340        C734   1.285       .  A
O341       Ni347   1.914       .  S
O341        C351   1.280       .  A
O342       Ni731   1.915       .  S
O342        C352   1.280       .  A
O343       Ni348   1.920       .  S
O343        C352   1.282       .  A
O344       Ni732   1.920   1_545  S
O344        C351   1.282       .  A
O345       Ni348   1.922       .  S
O345        C350   1.282       .  A
O346       Ni348   1.929       .  S
O346        C349   1.283       .  A
Ni347       O723   1.928       .  S
Ni347       O726   1.915   1_545  S
Ni347      Ni732   2.389   1_545  S
Ni348       O728   1.920       .  S
Ni348      Ni731   2.389       .  S
C349        C358   1.486       .  S
C350        O724   1.284       .  A
C350        C354   1.487       .  S
C353        C354   1.351       .  D
C353        H355   1.086       .  S
C354        H740   1.086       .  S
H356        C738   1.086       .  S
C357        C721   1.487       .  S
C357        C358   1.350       .  D
C357        H359   1.086       .  S
C358        H744   1.086       .  S
H360        C742   1.086       .  S
C361        C708   1.492       .  S
C361       C1130   1.347   1_655  D
C361       H1515   1.086       .  S
C362       C1129   1.347       .  D
C362       H1132   1.086       .  S
H363       C1513   1.087       .  S
H364       C1130   1.087       .  S
C365        C693   1.487       .  S
C365       C1134   1.339       .  D
C365       H1135   1.087       .  S
C366       C1133   1.350   1_455  D
C366       H1520   1.086       .  S
H367       C1133   1.086       .  S
H368       C1518   1.087       .  S
C369        C370   1.198       .  T
C371        C372   1.199       .  T
C373        C374   1.202       .  T
C375        C376   1.205       .  T
C381       C1150   1.199       .  T
C382       C1149   1.198   1_455  T
C383        C384   1.199   1_455  T
C384        C994   1.423       .  S
O385       Ni391   1.927       .  S
O385        C406   1.269       .  A
O386       Ni409   1.904   1_554  S
O386        C587   1.266   1_554  A
O387        H410   0.966       .  S
O387       Ni583   1.923       .  S
O387      Ni1369   1.909   1_455  S
O387       Ni403   1.924       .  S
C388        O405   1.268   1_655  A
C388       O1165   1.272       .  A
C388       C1267   1.465       .  S
O389       Ni408   1.929       .  S
O389        C395   1.271       .  A
O390       Ni408   1.902       .  S
O390        C392   1.269       .  A
Ni391       O394   1.932       .  S
Ni391       O396   1.906       .  S
Ni391       O579   1.923   1_554  S
C392       O1170   1.271       .  A
C392        C573   1.422       .  S
O393       Ni409   1.901       .  S
O393        C399   1.268   1_556  A
O394       C1167   1.272       .  A
C395        O578   1.269       .  A
C395        C570   1.443       .  S
O396        C398   1.269       .  A
O397       Ni408   1.943       .  S
O397       C1156   1.274       .  A
C398       O1172   1.270   1_455  A
C398        C575   1.424       .  S
C399       O1162   1.273       .  A
C399        C500   1.466       .  S
H400        O401   0.966       .  S
O401       Ni409   1.923   1_554  S
O401      Ni1363   1.911       .  S
O401       Ni600   1.922   1_554  S
O402       Ni403   1.929       .  S
O402       C1160   1.271   1_455  A
Ni403       O407   1.907       .  S
Ni403       O405   1.902       .  S
Ni403      O1361   1.911   1_455  S
O404       Ni409   1.927   1_554  S
O404       C1166   1.270       .  A
C406        O599   1.262   1_554  A
C406        C571   1.429       .  S
O407        C598   1.267       .  A
Ni408       O593   1.921       .  S
Ni409      O1347   1.911       .  S
O411       Ni417   1.932       .  S
O411        C432   1.271       .  A
O412       Ni435   1.897       .  S
O412        C421   1.264       .  A
O413        H436   0.966       .  S
O413       Ni417   1.921       .  S
O413      Ni1203   1.912   1_455  S
O413       Ni429   1.923       .  S
C414        O431   1.267   1_655  A
C414       O1191   1.275       .  A
C414        C514   1.465       .  S
O415       Ni434   1.928       .  S
O415        C421   1.269       .  A
O416       Ni434   1.904       .  S
O416        C418   1.269       .  A
Ni417       O420   1.942       .  S
Ni417       O422   1.903       .  S
C418       O1196   1.270       .  A
C418       C1344   1.422       .  S
O419       Ni435   1.898       .  S
O419        C425   1.265       .  A
O420       C1193   1.275       .  A
C421        C566   1.432       .  S
O422        C424   1.268       .  A
O423       Ni434   1.935       .  S
O423       C1182   1.272       .  A
C424       O1198   1.271   1_455  A
C424        C574   1.423       .  S
C425       O1188   1.273       .  A
C425       C1281   1.465       .  S
H426        O427   0.966       .  S
O427       Ni435   1.918       .  S
O427      Ni1197   1.910       .  S
O427       Ni434   1.922       .  S
O428       Ni429   1.926       .  S
O428       C1186   1.269   1_455  A
Ni429       O433   1.903       .  S
Ni429       O431   1.901       .  S
Ni429      O1195   1.913   1_455  S
O430       Ni435   1.930       .  S
O430       C1192   1.272       .  A
C432        O433   1.266       .  A
C432        C567   1.438       .  S
Ni435      O1181   1.911       .  S
O437       Ni443   1.931       .  S
O437        C458   1.271       .  A
O438       Ni461   1.894   1_554  S
O438        C639   1.263   1_554  A
O439        H462   0.966       .  S
O439       Ni635   1.921       .  S
O439       Ni653   1.913       .  S
O439       Ni455   1.919       .  S
C440        O457   1.267       .  A
C440        O449   1.271       .  A
C440        C527   1.463       .  S
O441       Ni460   1.924       .  S
O441        C447   1.269       .  A
O442       Ni460   1.901       .  S
O442        C444   1.269       .  A
Ni443       O446   1.942       .  S
Ni443       O448   1.905       .  S
Ni443       O631   1.922   1_554  S
C444        O454   1.273       .  A
C444        C562   1.421       .  S
O445       Ni461   1.898       .  S
O445        C451   1.266   1_556  A
O446        C451   1.275       .  A
C447        O630   1.267       .  A
C447        C572   1.437       .  S
O448        C450   1.268       .  A
O449       Ni460   1.932       .  S
C450        O456   1.270       .  A
C450        C564   1.424       .  S
C451        C528   1.467       .  S
H452        O453   0.966       .  S
O453       Ni461   1.921   1_554  S
O453       Ni647   1.910       .  S
O453       Ni652   1.923   1_554  S
O454       Ni455   1.931       .  S
Ni455       O459   1.911       .  S
Ni455       O457   1.902       .  S
Ni455       O645   1.914       .  S
O456       Ni461   1.928   1_554  S
C458        O651   1.266   1_554  A
C458        C569   1.437       .  S
O459        C650   1.268       .  A
Ni460       O645   1.922       .  S
Ni461       O631   1.909       .  S
O463       Ni469   1.926       .  S
O463        C484   1.269       .  A
O464       Ni487   1.903       .  S
O464        C473   1.266       .  A
O465        H488   0.966       .  S
O465       Ni469   1.923       .  S
O465       Ni487   1.910       .  S
O465       Ni481   1.922       .  S
C466        O483   1.266       .  A
C466        O475   1.275       .  A
C466        C544   1.468       .  S
O467       Ni486   1.932       .  S
O467        C473   1.271       .  A
O468       Ni486   1.905       .  S
O468        C470   1.269       .  A
Ni469       O472   1.935       .  S
Ni469       O474   1.901       .  S
C470        O480   1.271       .  A
C470        C563   1.424       .  S
O471       Ni487   1.899       .  S
O471        C477   1.266       .  A
O472        C477   1.272       .  A
C473        C568   1.438       .  S
O474        C476   1.269       .  A
O475       Ni486   1.942       .  S
C476        O482   1.272       .  A
C476        C561   1.421       .  S
C477        C543   1.463       .  S
H478        O479   0.966       .  S
O479       Ni487   1.920       .  S
O479       Ni481   1.910       .  S
O479       Ni486   1.921       .  S
O480       Ni481   1.929       .  S
Ni481       O485   1.898       .  S
Ni481       O483   1.899       .  S
O482       Ni487   1.931       .  S
C484        O485   1.264       .  A
C484        C565   1.432       .  S
O489       Ni497   1.908       .  S
O489       C1267   1.277   1_455  A
O490       C1268   1.284       .  A
O491       Ni689   1.899       .  S
O491        C885   1.276       .  A
O492       Ni497   1.957       .  S
O492       C1270   1.290   1_465  A
O493       Ni690   1.947       .  S
O494       Ni498   1.931   1_554  S
O494        C501   1.284       .  A
O495       Ni498   1.914       .  S
O495        C500   1.280   1_556  A
O496        C691   1.279       .  A
Ni497       O683   1.948       .  S
Ni497     Ni1074   2.389   1_465  S
Ni498       O685   1.923       .  S
Ni498     Ni1073   2.388   1_556  S
C499       O1257   1.285       .  A
C499        O688   1.277       .  A
C499       C1156   1.465       .  S
C500       O1258   1.282       .  A
C501        O875   1.283       .  A
C502       O1260   1.278       .  A
C502        C554   1.485       .  S
O503        C513   1.277   1_455  A
O504       Ni511   1.921       .  S
O504        C514   1.281   1_455  A
O505       Ni511   1.932       .  S
O505        C515   1.286   1_465  A
O506       Ni511   1.925       .  S
O507       Ni512   1.934       .  S
O507       C1284   1.283       .  A
O508       Ni512   1.926       .  S
O508        C899   1.282       .  A
O509       C1282   1.282       .  A
O510       Ni512   1.920       .  S
O510       C1281   1.282       .  A
Ni511      Ni896   2.388   1_465  S
Ni512      Ni895   2.389       .  S
C513       O1278   1.285       .  A
C513       C1193   1.466   1_655  S
C514       O1277   1.280       .  A
C515        O892   1.281       .  A
C515        C558   1.491       .  S
C516       O1275   1.278       .  A
O517       Ni525   1.914       .  S
O517        C527   1.279       .  A
O518        C528   1.280       .  A
O519       Ni717   1.928       .  S
O520       Ni525   1.934       .  S
O520        C530   1.285       .  A
O521        C530   1.281   1_545  A
O522       Ni526   1.928   1_554  S
O522        C529   1.283       .  A
O523       Ni526   1.921       .  S
O523        C528   1.282   1_556  A
O524        C719   1.282       .  A
Ni525       O711   1.927       .  S
C527        O716   1.282       .  A
C530        C545   1.486       .  S
O531        C541   1.283   1_545  A
O532       Ni539   1.931       .  S
O533       Ni539   1.914       .  S
O533        C543   1.280       .  A
O534        C544   1.280       .  A
O535       Ni540   1.922       .  S
O535        C544   1.282       .  A
O536        C543   1.281       .  A
O537       Ni540   1.920       .  S
O537        C542   1.281   1_565  A
O538       Ni540   1.927       .  S
O538        C541   1.283       .  A
C541        C550   1.487       .  S
C542        C546   1.486       .  S
C545        C546   1.351   1_565  D
C545        H547   1.086       .  S
C549        C550   1.348   1_545  D
C549        H551   1.086       .  S
C553       C1322   1.344   1_465  D
C553        H939   1.086       .  S
C554       C1321   1.346   1_565  D
C554       H1324   1.087       .  S
H555        C937   1.086       .  S
H556       C1322   1.087       .  S
C557       C1326   1.351   1_545  D
C557       H1327   1.086       .  S
C558       C1325   1.344   1_645  D
C558        H944   1.086       .  S
H559       C1325   1.087       .  S
H560        C942   1.086       .  S
C561        C562   1.198       .  T
C563        C564   1.199       .  T
C565        C566   1.204       .  T
C567        C568   1.208       .  T
C569        C762   1.207   1_554  T
C570        C761   1.210       .  T
C571        C764   1.202   1_554  T
C572        C763   1.207       .  T
C573       C1342   1.199       .  T
C574       C1341   1.199   1_455  T
C575        C576   1.200   1_455  T
C576       C1186   1.424       .  S
O577       Ni583   1.926       .  S
O577        C598   1.270       .  A
O578       Ni601   1.914       .  S
O579        H602   0.966       .  S
O579      Ni1177   1.911   1_456  S
O579       Ni595   1.914   1_556  S
C580        O597   1.263   1_656  A
C580       O1357   1.273       .  A
C580       C1459   1.466       .  S
O581       Ni600   1.929       .  S
O581        C587   1.270       .  A
O582       Ni600   1.901       .  S
O582        C584   1.268       .  A
Ni583       O586   1.939       .  S
Ni583       O588   1.903       .  S
C584       O1362   1.272       .  A
C584        C765   1.422       .  S
O585       Ni601   1.904       .  S
O585        C591   1.271       .  A
O586       C1359   1.273       .  A
C587        C762   1.437       .  S
O588        C590   1.269       .  A
O589       Ni600   1.939       .  S
O589       C1348   1.273       .  A
C590       O1364   1.271   1_455  A
C590        C767   1.422       .  S
C591       O1354   1.273       .  A
C591        C692   1.464       .  S
H592        O593   0.966       .  S
O593       Ni601   1.929       .  S
O593      Ni1171   1.912       .  S
O594       Ni595   1.930   1_556  S
O594       C1352   1.272   1_455  A
Ni595       O599   1.893   1_554  S
Ni595       O597   1.897       .  S
Ni595      O1169   1.911   1_455  S
O596       Ni601   1.926       .  S
O596       C1358   1.269       .  A
C598        C763   1.437       .  S
Ni601      O1155   1.912       .  S
O603       Ni609   1.929       .  S
O603        C624   1.270       .  A
O604       Ni627   1.890       .  S
O604        C613   1.261       .  A
O605        H628   0.966       .  S
O605       Ni609   1.922       .  S
O605      Ni1395   1.911   1_455  S
O605       Ni621   1.923       .  S
C606        O623   1.267   1_655  A
C606       O1383   1.274       .  A
C606        C706   1.466       .  S
O607       Ni626   1.929       .  S
O607        C613   1.269       .  A
O608       Ni626   1.907       .  S
O608        C610   1.268       .  A
Ni609       O612   1.938       .  S
Ni609       O614   1.901       .  S
C610       O1388   1.270       .  A
C610       C1536   1.425       .  S
O611       Ni627   1.896       .  S
O611        C617   1.262       .  A
O612       C1385   1.273       .  A
C613        C758   1.428       .  S
O614        C616   1.269       .  A
O615       Ni626   1.933       .  S
O615       C1374   1.273       .  A
C616       O1390   1.272   1_455  A
C616        C766   1.422       .  S
C617       O1380   1.273       .  A
C617       C1473   1.466       .  S
H618        O619   0.966       .  S
O619       Ni627   1.912       .  S
O619      Ni1389   1.911       .  S
O619       Ni626   1.924       .  S
O620       Ni621   1.928       .  S
O620       C1378   1.271   1_455  A
Ni621       O625   1.900       .  S
Ni621       O623   1.900       .  S
Ni621      O1387   1.909   1_455  S
O622       Ni627   1.930       .  S
O622       C1384   1.272       .  A
C624        O625   1.265       .  A
C624        C759   1.435       .  S
Ni627      O1373   1.912       .  S
O629       Ni635   1.931       .  S
O629        C650   1.271       .  A
O630       Ni653   1.907       .  S
O631        H654   0.966       .  S
O631       Ni647   1.920   1_556  S
C632        O649   1.266   1_556  A
C632        O641   1.272       .  A
C632        C719   1.465       .  S
O633       Ni652   1.926       .  S
O633        C639   1.269       .  A
O634       Ni652   1.902       .  S
O634        C636   1.269       .  A
Ni635       O638   1.939       .  S
Ni635       O640   1.904       .  S
C636        O646   1.272       .  A
C636        C754   1.422       .  S
O637       Ni653   1.901       .  S
O637        C643   1.267       .  A
O638        C643   1.274       .  A
C639        C764   1.429       .  S
O640        C642   1.269       .  A
O641       Ni652   1.936       .  S
C642        O648   1.271       .  A
C642        C756   1.422       .  S
C643        C720   1.466       .  S
H644        O645   0.966       .  S
O645       Ni653   1.923       .  S
O646       Ni647   1.930   1_556  S
Ni647       O651   1.902   1_554  S
Ni647       O649   1.899       .  S
O648       Ni653   1.928       .  S
C650        C761   1.443       .  S
O655       Ni661   1.927       .  S
O655        C676   1.270       .  A
O656       Ni679   1.900       .  S
O656        C665   1.265       .  A
O657        H680   0.966       .  S
O657       Ni661   1.923       .  S
O657       Ni679   1.909       .  S
O657       Ni673   1.920       .  S
C658        O675   1.265       .  A
C658        O667   1.274       .  A
C658        C736   1.466       .  S
O659       Ni678   1.930       .  S
O659        C665   1.271       .  A
O660       Ni678   1.904       .  S
O660        C662   1.268       .  A
Ni661       O664   1.938       .  S
Ni661       O666   1.902       .  S
C662        O672   1.270       .  A
C662        C755   1.422       .  S
O663       Ni679   1.900       .  S
O663        C669   1.267       .  A
O664        C669   1.273       .  A
C665        C760   1.435       .  S
O666        C668   1.268       .  A
O667       Ni678   1.942       .  S
C668        O674   1.271       .  A
C668        C753   1.422       .  S
C669        C735   1.467       .  S
H670        O671   0.966       .  S
O671       Ni679   1.920       .  S
O671       Ni673   1.908       .  S
O671       Ni678   1.922       .  S
O672       Ni673   1.927       .  S
Ni673       O677   1.892       .  S
Ni673       O675   1.896       .  S
O674       Ni679   1.929       .  S
C676        O677   1.262       .  A
C676        C757   1.428       .  S
O681       Ni689   1.924   1_556  S
O681       C1459   1.283   1_455  A
O682       C1460   1.282       .  A
O683       C1077   1.287   1_465  A
O684       Ni689   1.909   1_556  S
O684       C1462   1.278       .  A
O686       Ni690   1.956       .  S
O686        C693   1.291       .  A
O687       Ni690   1.905       .  S
O687        C692   1.276       .  A
Ni689      Ni882   2.389   1_464  S
Ni690      Ni881   2.389       .  S
C691       O1449   1.282   1_556  A
C691       C1348   1.465       .  S
C692       O1450   1.285       .  A
C693       O1067   1.274       .  A
C694       O1452   1.283       .  A
C694        C746   1.491       .  S
O695        C705   1.280       .  A
O696       Ni703   1.919       .  S
O696        C706   1.281   1_455  A
O697       Ni703   1.933       .  S
O697        C707   1.283       .  A
O698       Ni703   1.922       .  S
O699       Ni704   1.909       .  S
O699       C1476   1.278       .  A
O700       Ni704   1.901       .  S
O700       C1091   1.275       .  A
O701       C1474   1.285       .  A
O702       Ni704   1.929       .  S
O702       C1473   1.284       .  A
Ni703     Ni1088   2.388   1_465  S
Ni704     Ni1087   2.389       .  S
C705       O1470   1.281   1_455  A
C705       C1385   1.465       .  S
C706       O1469   1.280       .  A
C707       O1084   1.284   1_465  A
C707        C750   1.492       .  S
C708       O1467   1.283       .  A
O709       Ni717   1.914       .  S
O709        C719   1.280   1_554  A
O710        C720   1.281       .  A
O712       Ni717   1.936   1_556  S
O712        C722   1.285       .  A
O713        C722   1.281   1_545  A
O714       Ni718   1.931       .  S
O714        C721   1.284       .  A
O715       Ni718   1.920       .  S
O715        C720   1.281       .  A
C722        C737   1.488       .  S
O723        C733   1.283   1_545  A
O724       Ni731   1.933       .  S
O725       Ni731   1.916       .  S
O725        C735   1.280       .  A
O726        C736   1.280       .  A
O727       Ni732   1.920       .  S
O727        C736   1.282       .  A
O728        C735   1.282       .  A
O729       Ni732   1.921       .  S
O729        C734   1.281   1_565  A
O730       Ni732   1.927       .  S
O730        C733   1.282       .  A
C733        C742   1.486       .  S
C734        C738   1.488       .  S
C737        C738   1.352   1_565  D
C737        H739   1.086       .  S
C741        C742   1.348   1_545  D
C741        H743   1.086       .  S
C745       C1514   1.347   1_645  D
C745       H1131   1.086       .  S
C746       C1513   1.346   1_565  D
C746       H1516   1.086       .  S
H747       C1129   1.087       .  S
H748       C1514   1.087       .  S
C749       C1518   1.338   1_565  D
C749       H1519   1.087       .  S
C750       C1517   1.347   1_465  D
C750       H1136   1.086       .  S
H751       C1517   1.087       .  S
H752       C1134   1.087       .  S
C753        C754   1.198       .  T
C755        C756   1.198       .  T
C757        C758   1.201       .  T
C759        C760   1.206       .  T
C765       C1534   1.198       .  T
C766       C1533   1.199   1_455  T
C767        C768   1.199   1_455  T
C768       C1378   1.422       .  S
O769       Ni775   1.928       .  S
O769        C790   1.270       .  A
O770       Ni793   1.910       .  S
O770        C971   1.268   1_554  A
O771        H794   0.966       .  S
O771       Ni967   1.924       .  S
O771       Ni787   1.912       .  S
C772        O789   1.262       .  A
O773       Ni792   1.933       .  S
O773        C779   1.271       .  A
O774       Ni792   1.903       .  S
O774        C776   1.269       .  A
Ni775       O778   1.938       .  S
Ni775       O780   1.904       .  S
Ni775       O963   1.922   1_554  S
C776        C957   1.422       .  S
O777       Ni793   1.902   1_556  S
O777        C783   1.270   1_656  A
C779        O962   1.263       .  A
C779        C954   1.433       .  S
O780        C782   1.269       .  A
O781       Ni792   1.939       .  S
C782        C959   1.423       .  S
C783        C884   1.464       .  S
H784        O785   0.966       .  S
O785       Ni793   1.928       .  S
O785       Ni984   1.921   1_554  S
O786       Ni787   1.929       .  S
Ni787       O791   1.890       .  S
Ni787       O789   1.896       .  S
O788       Ni793   1.926       .  S
C790        O983   1.264   1_554  A
C790        C955   1.433       .  S
O791        C982   1.261       .  A
Ni792       O977   1.921       .  S
O795       Ni801   1.929       .  S
O795        C816   1.271       .  A
O796       Ni819   1.898       .  S
O796        C805   1.264       .  A
O797        H820   0.966       .  S
O797       Ni801   1.922       .  S
O797       Ni813   1.924       .  S
C798        O815   1.268       .  A
C798        C898   1.466       .  S
O799       Ni818   1.927       .  S
O799        C805   1.269       .  A
O800       Ni818   1.907       .  S
O800        C802   1.269       .  A
Ni801       O804   1.940       .  S
Ni801       O806   1.901       .  S
O803       Ni819   1.897       .  S
O803        C809   1.265   1_655  A
C805        C950   1.432       .  S
O806        C808   1.269       .  A
O807       Ni818   1.934       .  S
C808        C958   1.421       .  S
H810        O811   0.966       .  S
O811       Ni819   1.917       .  S
O811       Ni818   1.924       .  S
O812       Ni813   1.927       .  S
Ni813       O817   1.902       .  S
Ni813       O815   1.901       .  S
O814       Ni819   1.928       .  S
C816        O817   1.266       .  A
C816        C951   1.435       .  S
O821       Ni827   1.931       .  S
O821        C842   1.271       .  A
O822       Ni845   1.899   1_554  S
O822       C1023   1.264   1_554  A
O823        H846   0.966       .  S
O823      Ni1019   1.922       .  S
O823      Ni1037   1.907       .  S
O823       Ni839   1.921       .  S
C824        O841   1.266       .  A
C824        O833   1.273       .  A
C824        C911   1.465       .  S
O825       Ni844   1.926       .  S
O825        C831   1.270       .  A
O826       Ni844   1.903       .  S
O826        C828   1.269       .  A
Ni827       O830   1.940       .  S
Ni827       O832   1.905       .  S
Ni827      O1015   1.920   1_554  S
C828        O838   1.271       .  A
C828        C946   1.423       .  S
O829       Ni845   1.898       .  S
O829        C835   1.266   1_556  A
O830        C835   1.274       .  A
C831       O1014   1.262       .  A
C831        C956   1.428       .  S
O832        C834   1.269       .  A
O833       Ni844   1.938       .  S
C834        O840   1.270       .  A
C834        C948   1.424       .  S
C835        C912   1.466       .  S
H836        O837   0.966       .  S
O837       Ni845   1.922   1_554  S
O837      Ni1031   1.913       .  S
O837      Ni1036   1.922   1_554  S
O838       Ni839   1.929       .  S
Ni839       O843   1.895       .  S
Ni839       O841   1.898       .  S
Ni839      O1029   1.907       .  S
O840       Ni845   1.928   1_554  S
C842       O1035   1.268   1_554  A
C842        C953   1.440       .  S
O843       C1034   1.264       .  A
Ni844      O1029   1.923       .  S
Ni845      O1015   1.910       .  S
O847       Ni853   1.927       .  S
O847        C868   1.270       .  A
O848       Ni871   1.900       .  S
O848        C857   1.265       .  A
O849        H872   0.966       .  S
O849       Ni853   1.922       .  S
O849       Ni871   1.909       .  S
O849       Ni865   1.920       .  S
C850        O867   1.266       .  A
C850        O859   1.274       .  A
C850        C928   1.468       .  S
O851       Ni870   1.930       .  S
O851        C857   1.271       .  A
O852       Ni870   1.905       .  S
O852        C854   1.269       .  A
Ni853       O856   1.936       .  S
Ni853       O858   1.904       .  S
C854        O864   1.271       .  A
C854        C947   1.424       .  S
O855       Ni871   1.899       .  S
O855        C861   1.266       .  A
O856        C861   1.273       .  A
C857        C952   1.435       .  S
O858        C860   1.269       .  A
O859       Ni870   1.940       .  S
C860        O866   1.271       .  A
C860        C945   1.423       .  S
C861        C927   1.464       .  S
H862        O863   0.966       .  S
O863       Ni871   1.921       .  S
O863       Ni865   1.911       .  S
O863       Ni870   1.922       .  S
O864       Ni865   1.928       .  S
Ni865       O869   1.898       .  S
Ni865       O867   1.900       .  S
O866       Ni871   1.929       .  S
C868        O869   1.265       .  A
C868        C949   1.432       .  S
O873       Ni881   1.930       .  S
O874      Ni1457   1.920   1_545  S
O875      Ni1073   1.926       .  S
O876       Ni881   1.908       .  S
O877      Ni1074   1.899       .  S
O877       C1270   1.276       .  A
O878       Ni882   1.956   1_554  S
O878        C885   1.290   1_645  A
O879       Ni882   1.910   1_554  S
O879        C884   1.278   1_655  A
O880      Ni1266   1.906       .  S
O880       C1075   1.277   1_655  A
Ni881      O1450   1.929       .  S
Ni881      O1067   1.901       .  S
Ni882      O1069   1.947       .  S
Ni882      O1264   1.913   1_545  S
C883       O1072   1.279       .  A
C885       C1325   1.484       .  S
C886       O1261   1.284   1_455  A
C886        C938   1.492       .  S
O887      Ni1279   1.913   1_545  S
O887        C897   1.279       .  A
O888       Ni895   1.914       .  S
O888        C898   1.279       .  A
O889       Ni895   1.931       .  S
O889        C899   1.284       .  A
O890       Ni895   1.922       .  S
O890       C1284   1.284       .  A
O891       Ni896   1.933       .  S
O892       Ni896   1.925       .  S
O893      Ni1280   1.931       .  S
O894       Ni896   1.916       .  S
Ni895      O1271   1.913       .  S
Ni896      O1277   1.916   1_545  S
C899        C942   1.488       .  S
C900       O1274   1.284   1_545  A
C900       C1321   1.492       .  S
O901       Ni909   1.915       .  S
O901        C911   1.280       .  A
O902      Ni1485   1.914   1_545  S
O902        C912   1.280       .  A
O903      Ni1101   1.925       .  S
O903       C1297   1.283       .  A
O904       Ni909   1.933       .  S
O904        C914   1.284       .  A
O905      Ni1486   1.925       .  S
O905        C914   1.282       .  A
O906       Ni910   1.928   1_554  S
O906        C913   1.283       .  A
O907       Ni910   1.921       .  S
O907        C912   1.282   1_556  A
O908      Ni1294   1.916       .  S
O908       C1103   1.281       .  A
Ni909      O1478   1.915       .  S
Ni909      O1095   1.924       .  S
Ni909     Ni1486   2.389       .  S
Ni910      O1481   1.919       .  S
Ni910      O1292   1.920   1_545  S
Ni910     Ni1485   2.389   1_546  S
C911       O1100   1.281       .  A
C913       O1287   1.283   1_545  A
C913       C1317   1.488       .  S
C914        C929   1.489       .  S
O915      Ni1307   1.925       .  S
O915        C925   1.282       .  A
O916       Ni923   1.935       .  S
O916       C1310   1.285       .  A
O917       Ni923   1.914       .  S
O917        C927   1.280       .  A
O918      Ni1307   1.917       .  S
O918        C928   1.281       .  A
O919       Ni924   1.920       .  S
O919        C928   1.281       .  A
O920      Ni1308   1.918   1_545  S
O920        C927   1.281       .  A
O921       Ni924   1.925       .  S
O921        C926   1.282       .  A
O922       Ni924   1.930       .  S
O922        C925   1.283       .  A
Ni923      O1299   1.928       .  S
Ni923      O1302   1.915   1_545  S
Ni923     Ni1308   2.389   1_545  S
Ni924      O1304   1.920       .  S
Ni924     Ni1307   2.389       .  S
C925        C934   1.487       .  S
C926       O1300   1.284       .  A
C926        C930   1.489       .  S
C929        C930   1.351       .  D
C929        H931   1.086       .  S
C930       H1316   1.086       .  S
H932       C1314   1.086       .  S
C933       C1297   1.486       .  S
C933        C934   1.349       .  D
C933        H935   1.086       .  S
C934       H1320   1.086       .  S
H936       C1318   1.086       .  S
C937       C1284   1.491       .  S
C941       C1269   1.487       .  S
C945        C946   1.199       .  T
C947        C948   1.200       .  T
C949        C950   1.204       .  T
C951        C952   1.206       .  T
C953       C1146   1.209       .  T
C954       C1145   1.205       .  T
C955       C1148   1.204   1_554  T
C956       C1147   1.201       .  T
C959        C960   1.199       .  T
O961       Ni967   1.928       .  S
O961        C982   1.269       .  A
O962       Ni985   1.895       .  S
O963        H986   0.966       .  S
O963       Ni979   1.919   1_556  S
C964        O981   1.265   1_556  A
O965       Ni984   1.928       .  S
O965        C971   1.270       .  A
O966       Ni984   1.901       .  S
O966        C968   1.269       .  A
Ni967       O970   1.932       .  S
Ni967       O972   1.906       .  S
C968       C1149   1.422       .  S
O969       Ni985   1.896       .  S
O969        C975   1.264   1_655  A
C971       C1146   1.440   1_556  S
O972        C974   1.268       .  A
O973       Ni984   1.940       .  S
C974       C1151   1.424       .  S
C975       C1076   1.464       .  S
H976        O977   0.966       .  S
O977       Ni985   1.917       .  S
O978       Ni979   1.931   1_556  S
Ni979       O983   1.898   1_554  S
Ni979       O981   1.898       .  S
O980       Ni985   1.927       .  S
C982       C1147   1.427       .  S
O987       Ni993   1.928       .  S
O987       C1008   1.270       .  A
O988      Ni1011   1.900       .  S
O988        C997   1.265       .  A
O989       H1012   0.966       .  S
O989       Ni993   1.922       .  S
O989      Ni1005   1.929       .  S
C990       O1007   1.271       .  A
C990       C1090   1.464       .  S
O991      Ni1010   1.929       .  S
O991        C997   1.270       .  A
O992      Ni1010   1.905       .  S
O992        C994   1.269       .  A
Ni993       O996   1.942       .  S
Ni993       O998   1.901       .  S
O995      Ni1011   1.899       .  S
O995       C1001   1.266   1_655  A
C997       C1142   1.435       .  S
O998       C1000   1.268       .  A
O999      Ni1010   1.937       .  S
C1000      C1150   1.422       .  S
H1002      O1003   0.966       .  S
O1003     Ni1011   1.919       .  S
O1003     Ni1010   1.922       .  S
O1004     Ni1005   1.926       .  S
Ni1005     O1009   1.912       .  S
Ni1005     O1007   1.904       .  S
O1006     Ni1011   1.930       .  S
C1008      O1009   1.269       .  A
C1008      C1143   1.441       .  S
O1013     Ni1019   1.932       .  S
O1013      C1034   1.272       .  A
O1014     Ni1037   1.892       .  S
O1015      H1038   0.966       .  S
O1015     Ni1031   1.918   1_556  S
C1016      O1033   1.266   1_556  A
C1016      O1025   1.272       .  A
C1016      C1103   1.464       .  S
O1017     Ni1036   1.926       .  S
O1017      C1023   1.269       .  A
O1018     Ni1036   1.901       .  S
O1018      C1020   1.269       .  A
Ni1019     O1022   1.946       .  S
Ni1019     O1024   1.905       .  S
C1020      O1030   1.273       .  A
C1020      C1138   1.423       .  S
O1021     Ni1037   1.899       .  S
O1021      C1027   1.266       .  A
O1022      C1027   1.275       .  A
C1023      C1148   1.433       .  S
O1024      C1026   1.269       .  A
O1025     Ni1036   1.934       .  S
C1026      O1032   1.270       .  A
C1026      C1140   1.423       .  S
C1027      C1104   1.470       .  S
H1028      O1029   0.966       .  S
O1029     Ni1037   1.922       .  S
O1030     Ni1031   1.933   1_556  S
Ni1031     O1035   1.908   1_554  S
Ni1031     O1033   1.900       .  S
O1032     Ni1037   1.928       .  S
C1034      C1145   1.433       .  S
O1039     Ni1045   1.926       .  S
O1039      C1060   1.269       .  A
O1040     Ni1063   1.910       .  S
O1040      C1049   1.268       .  A
O1041      H1064   0.966       .  S
O1041     Ni1045   1.922       .  S
O1041     Ni1063   1.914       .  S
O1041     Ni1057   1.923       .  S
C1042      O1059   1.266       .  A
C1042      O1051   1.274       .  A
C1042      C1120   1.465       .  S
O1043     Ni1062   1.930       .  S
O1043      C1049   1.271       .  A
O1044     Ni1062   1.905       .  S
O1044      C1046   1.269       .  A
Ni1045     O1048   1.933       .  S
Ni1045     O1050   1.902       .  S
C1046      O1056   1.270       .  A
C1046      C1139   1.424       .  S
O1047     Ni1063   1.902       .  S
O1047      C1053   1.267       .  A
O1048      C1053   1.271       .  A
C1049      C1144   1.441       .  S
O1050      C1052   1.269       .  A
O1051     Ni1062   1.939       .  S
C1052      O1058   1.274       .  A
C1052      C1137   1.423       .  S
C1053      C1119   1.464       .  S
H1054      O1055   0.966       .  S
O1055     Ni1063   1.918       .  S
O1055     Ni1057   1.911       .  S
O1055     Ni1062   1.920       .  S
O1056     Ni1057   1.928       .  S
Ni1057     O1061   1.901       .  S
Ni1057     O1059   1.899       .  S
O1058     Ni1063   1.933       .  S
C1060      O1061   1.265       .  A
C1060      C1141   1.435       .  S
O1065     Ni1073   1.920       .  S
O1066     Ni1265   1.929   1_545  S
O1068     Ni1073   1.934   1_556  S
O1069      C1462   1.287   1_645  A
O1070     Ni1074   1.909       .  S
O1070      C1077   1.278       .  A
O1071     Ni1074   1.926       .  S
O1071      C1076   1.283   1_655  A
O1072     Ni1458   1.912       .  S
Ni1073     O1258   1.920       .  S
Ni1074     O1456   1.926   1_545  S
C1077      C1517   1.485       .  S
C1078      O1453   1.287   1_455  A
C1078      C1130   1.485       .  S
O1079     Ni1471   1.906   1_545  S
O1079      C1089   1.277       .  A
O1080     Ni1087   1.906       .  S
O1080      C1090   1.277       .  A
O1081     Ni1087   1.955       .  S
O1081      C1091   1.291       .  A
O1082     Ni1087   1.948       .  S
O1082      C1476   1.287       .  A
O1083     Ni1088   1.934       .  S
O1084     Ni1088   1.924       .  S
O1085     Ni1472   1.920       .  S
O1086     Ni1088   1.915       .  S
Ni1087     O1463   1.907       .  S
Ni1088     O1469   1.915   1_545  S
C1091      C1134   1.487       .  S
C1092      O1466   1.287   1_545  A
C1092      C1513   1.485       .  S
O1093     Ni1101   1.915       .  S
O1093      C1103   1.280   1_554  A
O1094     Ni1293   1.918   1_545  S
O1094      C1104   1.280       .  A
O1095      C1489   1.282       .  A
O1096     Ni1101   1.932   1_556  S
O1096      C1106   1.284       .  A
O1097     Ni1294   1.921       .  S
O1097      C1106   1.282       .  A
O1098     Ni1102   1.927       .  S
O1098      C1105   1.282       .  A
O1099     Ni1102   1.922       .  S
O1099      C1104   1.282       .  A
O1100     Ni1486   1.918       .  S
Ni1101     O1286   1.915       .  S
Ni1101    Ni1294   2.389   1_554  S
Ni1102     O1289   1.920       .  S
Ni1102     O1484   1.921   1_545  S
Ni1102    Ni1293   2.388   1_545  S
C1105      O1479   1.284   1_545  A
C1105      C1509   1.487       .  S
C1106      C1121   1.486       .  S
O1107     Ni1499   1.925       .  S
O1107      C1117   1.283       .  A
O1108     Ni1115   1.934       .  S
O1108      C1502   1.285       .  A
O1109     Ni1115   1.913       .  S
O1109      C1119   1.279       .  A
O1110     Ni1499   1.915       .  S
O1110      C1120   1.280       .  A
O1111     Ni1116   1.919       .  S
O1111      C1120   1.281       .  A
O1112     Ni1500   1.919   1_545  S
O1112      C1119   1.282       .  A
O1113     Ni1116   1.921       .  S
O1113      C1118   1.282       .  A
O1114     Ni1116   1.928       .  S
O1114      C1117   1.283       .  A
Ni1115     O1491   1.928       .  S
Ni1115     O1494   1.913   1_545  S
Ni1115    Ni1500   2.389   1_545  S
Ni1116     O1496   1.917       .  S
Ni1116    Ni1499   2.389       .  S
C1117      C1126   1.486       .  S
C1118      O1492   1.284       .  A
C1118      C1122   1.486       .  S
C1121      C1122   1.350       .  D
C1121      H1123   1.086       .  S
C1122      H1508   1.086       .  S
H1124      C1506   1.086       .  S
C1125      C1489   1.486       .  S
C1125      C1126   1.349       .  D
C1125      H1127   1.086       .  S
C1126      H1512   1.086       .  S
H1128      C1510   1.086       .  S
C1129      C1476   1.485       .  S
C1133      C1461   1.488       .  S
C1137      C1138   1.199       .  T
C1139      C1140   1.199       .  T
C1141      C1142   1.206       .  T
C1143      C1144   1.209       .  T
C1151      C1152   1.200       .  T
O1153     Ni1159   1.930       .  S
O1153      C1174   1.270       .  A
O1154     Ni1177   1.910       .  S
O1154      C1355   1.268   1_554  A
O1155      H1178   0.966       .  S
O1155     Ni1351   1.923       .  S
O1155     Ni1171   1.910       .  S
C1156      O1173   1.261       .  A
O1157     Ni1176   1.924       .  S
O1157      C1163   1.269       .  A
O1158     Ni1176   1.902       .  S
O1158      C1160   1.268       .  A
Ni1159     O1162   1.937       .  S
Ni1159     O1164   1.905       .  S
Ni1159     O1347   1.923   1_554  S
C1160      C1341   1.423       .  S
O1161     Ni1177   1.904   1_556  S
O1161      C1167   1.270   1_656  A
C1163      O1346   1.264       .  A
C1163      C1338   1.430       .  S
O1164      C1166   1.269       .  A
O1165     Ni1176   1.934       .  S
C1166      C1343   1.422       .  S
C1167      C1268   1.463       .  S
H1168      O1169   0.966       .  S
O1169     Ni1177   1.928       .  S
O1169     Ni1368   1.922   1_554  S
O1170     Ni1171   1.930       .  S
Ni1171     O1175   1.890       .  S
Ni1171     O1173   1.893       .  S
O1172     Ni1177   1.927       .  S
C1174      O1367   1.264   1_554  A
C1174      C1339   1.434       .  S
O1175      C1366   1.261       .  A
Ni1176     O1361   1.924       .  S
O1179     Ni1185   1.929       .  S
O1179      C1200   1.270       .  A
O1180     Ni1203   1.893       .  S
O1180      C1189   1.262       .  A
O1181      H1204   0.966       .  S
O1181     Ni1185   1.921       .  S
O1181     Ni1197   1.924       .  S
C1182      O1199   1.268       .  A
C1182      C1282   1.465       .  S
O1183     Ni1202   1.935       .  S
O1183      C1189   1.271       .  A
O1184     Ni1202   1.907       .  S
O1184      C1186   1.269       .  A
Ni1185     O1188   1.938       .  S
Ni1185     O1190   1.902       .  S
O1187     Ni1203   1.897       .  S
O1187      C1193   1.263   1_655  A
C1189      C1334   1.434       .  S
O1190      C1192   1.269       .  A
O1191     Ni1202   1.940       .  S
C1192      C1342   1.422       .  S
H1194      O1195   0.966       .  S
O1195     Ni1203   1.916       .  S
O1195     Ni1202   1.923       .  S
O1196     Ni1197   1.927       .  S
Ni1197     O1201   1.905       .  S
Ni1197     O1199   1.902       .  S
O1198     Ni1203   1.929       .  S
C1200      O1201   1.267       .  A
C1200      C1335   1.438       .  S
O1205     Ni1211   1.927       .  S
O1205      C1226   1.270       .  A
O1206     Ni1229   1.899   1_554  S
O1206      C1407   1.264   1_554  A
O1207      H1230   0.966       .  S
O1207     Ni1403   1.922       .  S
O1207     Ni1421   1.906       .  S
O1207     Ni1223   1.921       .  S
C1208      O1225   1.267       .  A
C1208      O1217   1.273       .  A
C1208      C1295   1.467       .  S
O1209     Ni1228   1.929       .  S
O1209      C1215   1.270       .  A
O1210     Ni1228   1.905       .  S
O1210      C1212   1.269       .  A
Ni1211     O1214   1.937       .  S
Ni1211     O1216   1.904       .  S
Ni1211     O1399   1.921   1_554  S
C1212      O1222   1.271       .  A
C1212      C1330   1.424       .  S
O1213     Ni1229   1.899       .  S
O1213      C1219   1.266   1_556  A
O1214      C1219   1.273       .  A
C1215      O1398   1.262       .  A
C1215      C1340   1.428       .  S
O1216      C1218   1.269       .  A
O1217     Ni1228   1.939       .  S
C1218      O1224   1.270       .  A
C1218      C1332   1.423       .  S
C1219      C1296   1.464       .  S
H1220      O1221   0.966       .  S
O1221     Ni1229   1.923   1_554  S
O1221     Ni1415   1.914       .  S
O1221     Ni1420   1.923   1_554  S
O1222     Ni1223   1.929       .  S
Ni1223     O1227   1.898       .  S
Ni1223     O1225   1.901       .  S
Ni1223     O1413   1.908       .  S
O1224     Ni1229   1.929   1_554  S
C1226      O1419   1.268   1_554  A
C1226      C1337   1.438       .  S
O1227      C1418   1.265       .  A
Ni1228     O1413   1.922       .  S
Ni1229     O1399   1.909       .  S
O1231     Ni1237   1.932       .  S
O1231      C1252   1.271       .  A
O1232     Ni1255   1.905       .  S
O1232      C1241   1.267       .  A
O1233      H1256   0.966       .  S
O1233     Ni1237   1.922       .  S
O1233     Ni1255   1.912       .  S
O1233     Ni1249   1.921       .  S
C1234      O1251   1.265       .  A
C1234      O1243   1.274       .  A
C1234      C1312   1.466       .  S
O1235     Ni1254   1.930       .  S
O1235      C1241   1.271       .  A
O1236     Ni1254   1.904       .  S
O1236      C1238   1.269       .  A
Ni1237     O1240   1.940       .  S
Ni1237     O1242   1.904       .  S
C1238      O1248   1.271       .  A
C1238      C1331   1.423       .  S
O1239     Ni1255   1.900       .  S
O1239      C1245   1.267       .  A
O1240      C1245   1.274       .  A
C1241      C1336   1.438       .  S
O1242      C1244   1.270       .  A
O1243     Ni1254   1.942       .  S
C1244      O1250   1.272       .  A
C1244      C1329   1.423       .  S
C1245      C1311   1.467       .  S
H1246      O1247   0.966       .  S
O1247     Ni1255   1.920       .  S
O1247     Ni1249   1.908       .  S
O1247     Ni1254   1.922       .  S
O1248     Ni1249   1.928       .  S
Ni1249     O1253   1.895       .  S
Ni1249     O1251   1.896       .  S
O1250     Ni1255   1.930       .  S
C1252      O1253   1.263       .  A
C1252      C1333   1.434       .  S
O1257     Ni1265   1.929       .  S
O1259     Ni1457   1.925       .  S
O1260     Ni1265   1.907       .  S
O1261     Ni1458   1.923       .  S
O1262     Ni1266   1.954   1_554  S
O1262      C1269   1.291   1_655  A
O1263     Ni1266   1.905   1_554  S
O1263      C1268   1.276   1_655  A
O1264      C1459   1.279       .  A
Ni1265     O1451   1.899       .  S
Ni1266     O1453   1.946       .  S
C1267      O1456   1.284       .  A
C1270      C1322   1.485       .  S
O1271      C1281   1.280       .  A
O1272     Ni1279   1.913       .  S
O1272      C1282   1.279       .  A
O1273     Ni1279   1.933       .  S
O1273      C1283   1.284       .  A
O1274     Ni1279   1.924       .  S
O1275     Ni1280   1.910       .  S
O1276     Ni1280   1.902       .  S
O1278     Ni1280   1.931       .  S
C1283      C1326   1.488       .  S
O1285     Ni1293   1.916       .  S
O1285      C1295   1.280       .  A
O1286      C1296   1.280       .  A
O1287     Ni1485   1.928       .  S
O1288     Ni1293   1.935       .  S
O1288      C1298   1.285       .  A
O1289      C1298   1.281   1_545  A
O1290     Ni1294   1.929   1_554  S
O1290      C1297   1.283       .  A
O1291     Ni1294   1.917       .  S
O1291      C1296   1.281   1_556  A
O1292      C1487   1.282       .  A
Ni1293     O1479   1.929       .  S
C1295      O1484   1.282       .  A
C1298      C1313   1.487       .  S
O1299      C1309   1.283   1_545  A
O1300     Ni1307   1.933       .  S
O1301     Ni1307   1.917       .  S
O1301      C1311   1.280       .  A
O1302      C1312   1.280       .  A
O1303     Ni1308   1.919       .  S
O1303      C1312   1.282       .  A
O1304      C1311   1.281       .  A
O1305     Ni1308   1.920       .  S
O1305      C1310   1.281   1_565  A
O1306     Ni1308   1.928       .  S
O1306      C1309   1.283       .  A
C1309      C1318   1.487       .  S
C1310      C1314   1.487       .  S
C1313      C1314   1.352   1_565  D
C1313      H1315   1.086       .  S
C1317      C1318   1.349   1_545  D
C1317      H1319   1.086       .  S
C1329      C1330   1.199       .  T
C1331      C1332   1.199       .  T
C1333      C1334   1.205       .  T
C1335      C1336   1.207       .  T
C1337      C1530   1.207       .  T
C1338      C1529   1.203       .  T
C1339      C1532   1.205   1_554  T
C1340      C1531   1.202       .  T
C1343      C1344   1.199       .  T
O1345     Ni1351   1.930       .  S
O1345      C1366   1.270       .  A
O1346     Ni1369   1.898       .  S
O1347      H1370   0.966       .  S
O1347     Ni1363   1.917   1_556  S
C1348      O1365   1.264   1_556  A
O1349     Ni1368   1.925       .  S
O1349      C1355   1.270       .  A
O1350     Ni1368   1.901       .  S
O1350      C1352   1.269       .  A
Ni1351     O1354   1.933       .  S
Ni1351     O1356   1.907       .  S
C1352      C1533   1.422       .  S
O1353     Ni1369   1.901       .  S
O1353      C1359   1.267   1_655  A
C1355      C1530   1.438   1_556  S
O1356      C1358   1.268       .  A
O1357     Ni1368   1.940       .  S
C1358      C1535   1.424       .  S
C1359      C1460   1.468       .  S
H1360      O1361   0.966       .  S
O1361     Ni1369   1.922       .  S
O1362     Ni1363   1.930   1_556  S
Ni1363     O1367   1.899   1_554  S
Ni1363     O1365   1.897       .  S
O1364     Ni1369   1.929       .  S
C1366      C1531   1.428       .  S
O1371     Ni1377   1.927       .  S
O1371      C1392   1.270       .  A
O1372     Ni1395   1.899       .  S
O1372      C1381   1.265       .  A
O1373      H1396   0.966       .  S
O1373     Ni1377   1.922       .  S
O1373     Ni1389   1.929       .  S
C1374      O1391   1.271       .  A
C1374      C1474   1.464       .  S
O1375     Ni1394   1.930       .  S
O1375      C1381   1.271       .  A
O1376     Ni1394   1.904       .  S
O1376      C1378   1.269       .  A
Ni1377     O1380   1.941       .  S
Ni1377     O1382   1.901       .  S
O1379     Ni1395   1.899       .  S
O1379      C1385   1.265   1_655  A
C1381      C1526   1.435       .  S
O1382      C1384   1.269       .  A
O1383     Ni1394   1.939       .  S
C1384      C1534   1.422       .  S
H1386      O1387   0.966       .  S
O1387     Ni1395   1.918       .  S
O1387     Ni1394   1.922       .  S
O1388     Ni1389   1.926       .  S
Ni1389     O1393   1.913       .  S
Ni1389     O1391   1.905       .  S
O1390     Ni1395   1.930       .  S
C1392      O1393   1.269       .  A
C1392      C1527   1.441       .  S
O1397     Ni1403   1.925       .  S
O1397      C1418   1.270       .  A
O1398     Ni1421   1.890       .  S
O1399      H1422   0.966       .  S
O1399     Ni1415   1.918   1_556  S
C1400      O1417   1.267   1_556  A
C1400      O1409   1.272       .  A
C1400      C1487   1.466       .  S
O1401     Ni1420   1.928       .  S
O1401      C1407   1.270       .  A
O1402     Ni1420   1.901       .  S
O1402      C1404   1.269       .  A
Ni1403     O1406   1.939       .  S
Ni1403     O1408   1.906       .  S
C1404      O1414   1.273       .  A
C1404      C1522   1.423       .  S
O1405     Ni1421   1.897       .  S
O1405      C1411   1.265       .  A
O1406      C1411   1.273       .  A
C1407      C1532   1.434       .  S
O1408      C1410   1.269       .  A
O1409     Ni1420   1.936       .  S
C1410      O1416   1.270       .  A
C1410      C1524   1.425       .  S
C1411      C1488   1.465       .  S
H1412      O1413   0.966       .  S
O1413     Ni1421   1.919       .  S
O1414     Ni1415   1.931   1_556  S
Ni1415     O1419   1.908   1_554  S
Ni1415     O1417   1.902       .  S
O1416     Ni1421   1.928       .  S
C1418      C1529   1.430       .  S
O1423     Ni1429   1.928       .  S
O1423      C1444   1.269       .  A
O1424     Ni1447   1.911       .  S
O1424      C1433   1.269       .  A
O1425      H1448   0.966       .  S
O1425     Ni1429   1.923       .  S
O1425     Ni1447   1.915       .  S
O1425     Ni1441   1.923       .  S
C1426      O1443   1.266       .  A
C1426      O1435   1.274       .  A
C1426      C1504   1.466       .  S
O1427     Ni1446   1.930       .  S
O1427      C1433   1.271       .  A
O1428     Ni1446   1.906       .  S
O1428      C1430   1.269       .  A
Ni1429     O1432   1.934       .  S
Ni1429     O1434   1.901       .  S
C1430      O1440   1.270       .  A
C1430      C1523   1.424       .  S
O1431     Ni1447   1.901       .  S
O1431      C1437   1.267       .  A
O1432      C1437   1.272       .  A
C1433      C1528   1.441       .  S
O1434      C1436   1.269       .  A
O1435     Ni1446   1.940       .  S
C1436      O1442   1.273       .  A
C1436      C1521   1.422       .  S
C1437      C1503   1.464       .  S
H1438      O1439   0.966       .  S
O1439     Ni1447   1.919       .  S
O1439     Ni1441   1.911       .  S
O1439     Ni1446   1.921       .  S
O1440     Ni1441   1.928       .  S
Ni1441     O1445   1.900       .  S
Ni1441     O1443   1.898       .  S
O1442     Ni1447   1.932       .  S
C1444      O1445   1.264       .  A
C1444      C1525   1.435       .  S
O1449     Ni1457   1.920       .  S
O1452     Ni1457   1.933   1_556  S
O1454     Ni1458   1.931       .  S
O1454      C1461   1.284       .  A
O1455     Ni1458   1.914       .  S
O1455      C1460   1.280   1_655  A
C1462      C1514   1.484       .  S
O1463      C1473   1.277       .  A
O1464     Ni1471   1.905       .  S
O1464      C1474   1.276       .  A
O1465     Ni1471   1.956       .  S
O1465      C1475   1.292   1_565  A
O1466     Ni1471   1.948       .  S
O1467     Ni1472   1.935       .  S
O1468     Ni1472   1.927       .  S
O1470     Ni1472   1.920       .  S
C1475      C1518   1.487       .  S
O1477     Ni1485   1.915       .  S
O1477      C1487   1.280   1_554  A
O1478      C1488   1.280       .  A
O1480     Ni1485   1.934   1_556  S
O1480      C1490   1.285       .  A
O1481      C1490   1.281   1_545  A
O1482     Ni1486   1.930       .  S
O1482      C1489   1.283       .  A
O1483     Ni1486   1.918       .  S
O1483      C1488   1.281       .  A
C1490      C1505   1.486       .  S
O1491      C1501   1.284   1_545  A
O1492     Ni1499   1.932       .  S
O1493     Ni1499   1.915       .  S
O1493      C1503   1.280       .  A
O1494      C1504   1.280       .  A
O1495     Ni1500   1.921       .  S
O1495      C1504   1.282       .  A
O1496      C1503   1.281       .  A
O1497     Ni1500   1.919       .  S
O1497      C1502   1.281   1_565  A
O1498     Ni1500   1.927       .  S
O1498      C1501   1.282       .  A
C1501      C1510   1.487       .  S
C1502      C1506   1.486       .  S
C1505      C1506   1.351   1_565  D
C1505      H1507   1.086       .  S
C1509      C1510   1.348   1_545  D
C1509      H1511   1.086       .  S
C1521      C1522   1.199       .  T
C1523      C1524   1.200       .  T
C1525      C1526   1.206       .  T
C1527      C1528   1.210       .  T
C1535      C1536   1.200       .  T
