geometry optimzed in LAMMPS
_audit_creation_date              2020-11-30 
_audit_creation_method            'lammps2cif' 
_symmetry_space_group_name_H-M    'P1' 
_symmetry_Int_Tables_number       1 
_symmetry_cell_setting            triclinic 
loop_ 
_symmetry_equiv_pos_as_xyz 
  x,y,z 
_cell_length_a                    35.19135095 
_cell_length_b                    30.762206458196896 
_cell_length_c                    26.327705287508635 
_cell_angle_alpha                 82.58206827119186 
_cell_angle_beta                  77.37134019192068 
_cell_angle_gamma                 85.88754738978143 
loop_ 
_atom_site_label 
_atom_site_type_symbol 
_atom_site_fract_x 
_atom_site_fract_y 
_atom_site_fract_z 
_atom_site_charge 
O1          O  0.03348835  0.03541378  0.04284087    -0.74500
O2          O  0.45707890  0.45322758  0.04332640    -0.74600
O3          O  0.03389128  0.44723155  0.04621969    -0.74600
O4          O  0.45719642  0.04152568  0.03912892    -0.74700
O5          O  0.47295980  0.04631243  0.95199144    -0.74600
O6          O  0.05072333  0.45421320  0.95886720    -0.74600
O7          O  0.47392475  0.45790031  0.95602725    -0.74600
O8          O  0.04919944  0.04235233  0.95564874    -0.74600
Ni9        Ni  0.49485748  0.49406614  0.04602246     1.25400
Ni10       Ni  0.01222936  0.00033227  0.95251484     1.25400
C11         C  0.05340703  0.05311288  0.99948041     0.87600
C12         C  0.45284374  0.44221906  0.99977216     0.87600
C13         C  0.05530419  0.43582802  0.00361510     0.87600
C14         C  0.45293404  0.05989953  0.99404597     0.87800
O15         O  0.02927876  0.03975133  0.54043372    -0.74500
O16         O  0.45066375  0.45795662  0.54718016    -0.74600
O17         O  0.02846639  0.45168728  0.54299806    -0.74600
O18         O  0.45145013  0.04626064  0.54446853    -0.74700
O19         O  0.46342033  0.05338924  0.45713251    -0.74600
O20         O  0.04020793  0.45877919  0.45585438    -0.74600
O21         O  0.46225577  0.46526594  0.45991680    -0.74600
O22         O  0.04089560  0.04708995  0.45304290    -0.74600
Ni23       Ni  0.48954133  0.49865848  0.54689016     1.25400
Ni24       Ni  0.00206549  0.00630428  0.45338242     1.25400
C25         C  0.04817713  0.05653634  0.49579087     0.87600
C26         C  0.44343485  0.44821687  0.50454389     0.87600
C27         C  0.04720326  0.43965605  0.49920068     0.87600
C28         C  0.44489048  0.06548057  0.50092406     0.87800
O29         O  0.21279153  0.25700081  0.12713219    -0.81000
O30         O  0.22922116  0.25457333  0.89113355    -0.65700
O31         O  0.23785685  0.22112464  0.03287968    -1.12300
C32         C  0.34152015  0.31758233  0.98942986     1.05900
O33         O  0.29283089  0.24545571  0.86288269    -0.78900
O34         O  0.33765282  0.21999667  0.93286465    -0.66500
Ni35       Ni  0.19315569  0.21820509  0.08863677     1.34900
C36         C  0.33796565  0.20285477  0.97928597     0.84600
O37         O  0.19146916  0.19592088  0.96775751    -0.79400
O38         O  0.17033319  0.17896597  0.05467694    -0.89700
C39         C  0.25887213  0.25275125  0.85381003     0.84200
O40         O  0.16293216  0.26633795  0.06262905    -0.67900
O41         O  0.34582643  0.30605227  0.94368187    -0.87200
C42         C  0.16594421  0.28985392  0.01888517     0.85000
C43         C  0.16973337  0.17477772  0.00729984     1.06600
H44         H  0.26025264  0.30721864  0.95701725     0.38400
O45         O  0.27118367  0.27754899  0.96061008    -1.09900
O46         O  0.31687164  0.21792984  0.01939731    -0.66500
Ni47       Ni  0.27577878  0.26296616  0.03181670     1.26300
O48         O  0.19255236  0.28336595  0.97902375    -0.66700
O49         O  0.31367811  0.30575929  0.02753434    -0.79000
C50         C  0.24562471  0.25089963  0.13970030     0.84400
O51         O  0.27647093  0.24811457  0.10454797    -0.66200
Ni52       Ni  0.31705859  0.27512187  0.90661019     1.27400
Ni53       Ni  0.23160545  0.23722933  0.96281262     1.26100
H54         H  0.25028262  0.19201326  0.03416901     0.39000
O55         O  0.20481498  0.25792541  0.63066704    -0.81000
O56         O  0.22481957  0.25309260  0.39046050    -0.65700
O57         O  0.22946162  0.22371419  0.53448887    -1.12300
C58         C  0.32864654  0.32857461  0.48895706     1.05900
O59         O  0.28854807  0.24273503  0.36925523    -0.78900
O60         O  0.33715754  0.23321264  0.43553312    -0.66500
Ni61       Ni  0.18337142  0.22345795  0.58850185     1.34900
C62         C  0.33486876  0.21217250  0.48060026     0.84600
O63         O  0.18663775  0.19606777  0.46668796    -0.79400
O64         O  0.15762566  0.18804901  0.55226611    -0.89700
C65         C  0.25590309  0.24901401  0.35601747     0.84200
O66         O  0.15879979  0.27580433  0.56167003    -0.67900
O67         O  0.33116718  0.32107181  0.44181469    -0.86200
C68         C  0.16131167  0.29623473  0.51621753     0.85000
C69         C  0.16110473  0.17969754  0.50522050     1.06600
H70         H  0.25068224  0.30930750  0.45958698     0.38400
O71         O  0.26284883  0.28014865  0.46222888    -1.09900
O72         O  0.30848002  0.22060544  0.51996533    -0.66500
Ni73       Ni  0.26769045  0.26562571  0.53300933     1.26300
O74         O  0.18449461  0.28396165  0.47581996    -0.66700
O75         O  0.30596980  0.30866355  0.52849486    -0.79000
C76         C  0.23843068  0.25337360  0.64131030     0.84400
O77         O  0.26875546  0.25057266  0.60532120    -0.66200
Ni78       Ni  0.30831458  0.28162853  0.40771807     1.27400
Ni79       Ni  0.22492794  0.23836732  0.46320152     1.26100
H80         H  0.24142230  0.19455637  0.53754099     0.39000
C81         C  0.27347989  0.27585884  0.70494024    -0.05900
C82         C  0.24224903  0.25403641  0.69617783     0.00000
C83         C  0.21597622  0.23281155  0.73959411    -0.08500
C84         C  0.22194282  0.23460562  0.79029455    -0.05900
C85         C  0.25373012  0.25524876  0.79905636     0.00000
C86         C  0.27972331  0.27712347  0.75573328    -0.08400
C87         C  0.31308903  0.30306103  0.76270674     0.61900
H88         H  0.29304707  0.29210530  0.67139602     0.12600
H89         H  0.20198065  0.21908857  0.82375969     0.12600
C90         C  0.18267171  0.20669055  0.73287114     0.62200
F91         F  0.33053330  0.32709705  0.71632118    -0.23000
F92         F  0.34144243  0.27488877  0.77943277    -0.20300
F93         F  0.29926969  0.33219587  0.79912165    -0.20000
F94         F  0.19661515  0.17694101  0.69723418    -0.20100
F95         F  0.15455295  0.23473693  0.71534262    -0.20400
F96         F  0.16495444  0.18325418  0.77951836    -0.23000
C97         C  0.27667175  0.27294927  0.20738304    -0.05900
C98         C  0.24779358  0.24939803  0.19537375     0.00000
C99         C  0.22180642  0.22505341  0.23640577    -0.08500
C100        C  0.22547729  0.22584940  0.28838546    -0.05900
C101        C  0.25421569  0.24961087  0.30035908     0.00000
C102        C  0.28019637  0.27390747  0.25938754    -0.08400
C103        C  0.31064856  0.30201147  0.27037158     0.61900
H104        H  0.29619616  0.29122422  0.17551938     0.12600
H105        H  0.20594197  0.20764755  0.32031412     0.12600
C106        C  0.19092555  0.19740970  0.22566460     0.62200
F107        F  0.32813128  0.32831835  0.22588085    -0.23000
F108        F  0.33953039  0.27544991  0.28819454    -0.20300
F109        F  0.29341475  0.32919894  0.30776446    -0.20000
F110        F  0.20770722  0.17003802  0.18828628    -0.20100
F111        F  0.16220953  0.22437539  0.20801172    -0.20400
F112        F  0.17325251  0.17134361  0.27027395    -0.23000
C113        C  0.09863698  0.40060966  0.54013162    -0.05900
C114        C  0.07805141  0.40402256  0.49959613     0.00000
C115        C  0.08706529  0.37338863  0.46214430    -0.08500
C116        C  0.11539277  0.33946075  0.46820595    -0.05900
C117        C  0.13478880  0.33527070  0.50996567     0.00000
C118        C  0.12740115  0.36731427  0.54554596    -0.08400
C119        C  0.15059131  0.36763220  0.58795263     0.61900
H120        H  0.09201227  0.42454715  0.56790777     0.12600
H121        H  0.12205957  0.31515879  0.44085129     0.12600
C122        C  0.06637692  0.37535967  0.41686867     0.62200
F123        F  0.14362560  0.40617448  0.61114579    -0.23000
F124        F  0.19006676  0.36392958  0.56634667    -0.20300
F125        F  0.14051395  0.33324599  0.62686666    -0.20000
F126        F  0.02643392  0.37616859  0.43556601    -0.20100
F127        F  0.07648274  0.33939709  0.38924835    -0.20400
F128        F  0.07642454  0.41258041  0.38230263    -0.23000
C129        C  0.38678840  0.43062041  0.47169178    -0.05900
C130        C  0.41206112  0.41814889  0.50596592     0.00000
C131        C  0.40748106  0.37747357  0.53847547    -0.08500
C132        C  0.37864763  0.34970162  0.53338799    -0.05900
C133        C  0.35454472  0.36156635  0.49735393     0.00000
C134        C  0.35765566  0.40334598  0.46726238    -0.08400
C135        C  0.32981863  0.41971379  0.43145902     0.61900
H136        H  0.39025277  0.46213908  0.44790418     0.12600
H137        H  0.37548507  0.31781868  0.55636799     0.12600
C138        C  0.43361552  0.36272208  0.57694280     0.62200
F139        F  0.33318276  0.46404163  0.41437279    -0.23000
F140        F  0.29177209  0.41345649  0.45816941    -0.20300
F141        F  0.33761919  0.39737726  0.38776034    -0.20000
F142        F  0.47234468  0.36425679  0.55129186    -0.20100
F143        F  0.42693943  0.32019182  0.60025575    -0.20400
F144        F  0.42658846  0.38990846  0.61621501    -0.23000
C145        C  0.42898208  0.14084420  0.46620612    -0.05900
C146        C  0.41662896  0.10328391  0.50018431     0.00000
C147        C  0.37790836  0.10219821  0.52993610    -0.08500
C148        C  0.35227828  0.13874475  0.52295955    -0.05900
C149        C  0.36422406  0.17590060  0.48742036     0.00000
C150        C  0.40373468  0.17759309  0.45964606    -0.08400
C151        C  0.41985549  0.21785834  0.42365081     0.61900
H152        H  0.45888225  0.14097833  0.44429902     0.12600
H153        H  0.32230540  0.13814939  0.54447538     0.12600
C154        C  0.36332216  0.06211646  0.56724962     0.62200
F155        F  0.46018552  0.21520352  0.40979514    -0.23000
F156        F  0.40914760  0.25519908  0.44853583    -0.20300
F157        F  0.40582456  0.22177186  0.37806373    -0.20000
F158        F  0.38288802  0.05600346  0.60797750    -0.20100
F159        F  0.36956582  0.02534641  0.54078243    -0.20400
F160        F  0.32384936  0.06649112  0.58869786    -0.23000
C161        C  0.13968343  0.10415569  0.51498191    -0.05900
C162        C  0.13422546  0.14834204  0.49606582     0.00000
C163        C  0.10184561  0.16192938  0.47310044    -0.08500
C164        C  0.07450895  0.13075371  0.47254402    -0.05900
C165        C  0.07912669  0.08695575  0.49381679     0.00000
C166        C  0.11292754  0.07288613  0.51328002    -0.08400
C167        C  0.12107042  0.02481693  0.53074863     0.61900
H168        H  0.16493636  0.09443609  0.53176598     0.12600
H169        H  0.04878699  0.14054143  0.45682364     0.12600
C170        C  0.09578372  0.20929245  0.45084381     0.62200
F171        F  0.15785190  0.01730614  0.54171406    -0.23000
F172        F  0.11891938  0.00006897  0.49124968    -0.20300
F173        F  0.09399819  0.01104192  0.57541912    -0.20000
F174        F  0.12749701  0.22143730  0.41149540    -0.20100
F175        F  0.09179905  0.23622180  0.49004111    -0.20400
F176        F  0.06273552  0.21553799  0.42982031    -0.23000
C177        C  0.07096584  0.35858260  0.02964301    -0.05900
C178        C  0.08455138  0.39951568  0.00619407     0.00000
C179        C  0.12487079  0.40451842  0.98545371    -0.08500
C180        C  0.15061724  0.36773077  0.99001320    -0.05900
C181        C  0.13707182  0.32672384  0.01432631     0.00000
C182        C  0.09644449  0.32167501  0.03328821    -0.08400
C183        C  0.07963763  0.27730902  0.05497514     0.61900
H184        H  0.03989398  0.35566919  0.04450753     0.12600
H185        H  0.18166542  0.37082067  0.97527755     0.12600
C186        C  0.14065771  0.44869480  0.96036192     0.62200
F187        F  0.03947256  0.27870830  0.06122379    -0.23000
F188        F  0.08849020  0.26373348  0.10334095    -0.20300
F189        F  0.09493482  0.24694964  0.02068965    -0.20000
F190        F  0.12955968  0.47940299  0.99544437    -0.20100
F191        F  0.12624626  0.46229518  0.91581656    -0.20400
F192        F  0.18096078  0.44686190  0.94595763    -0.23000
C193        C  0.35695455  0.39020459  0.00730873    -0.05900
C194        C  0.37008145  0.34743354  0.99725181     0.00000
C195        C  0.41036416  0.33533769  0.99011584    -0.08500
C196        C  0.43655125  0.36732740  0.99167109    -0.05900
C197        C  0.42351360  0.41039588  0.00013480     0.00000
C198        C  0.38321302  0.42224817  0.00851083    -0.08400
C199        C  0.36832732  0.46882472  0.01707124     0.61900
H200        H  0.32604467  0.39867143  0.01239595     0.12600
H201        H  0.46754440  0.35910534  0.98580389     0.12600
C202        C  0.42549628  0.28877838  0.98156305     0.62200
F203        F  0.32838012  0.47405105  0.02136225    -0.23000
F204        F  0.38597437  0.49768665  0.97526791    -0.20300
F205        F  0.37687974  0.47934829  0.06268782    -0.20000
F206        F  0.42028314  0.27927566  0.93372766    -0.20100
F207        F  0.40555504  0.25951216  0.02105408    -0.20400
F208        F  0.46483275  0.28288512  0.98185886    -0.23000
C209        C  0.40270101  0.16741346  0.95048511    -0.05900
C210        C  0.36647210  0.16556932  0.98591585     0.00000
C211        C  0.35920066  0.12899159  0.02507138    -0.08500
C212        C  0.38867610  0.09571944  0.02691251    -0.05900
C213        C  0.42432824  0.09720104  0.99046128     0.00000
C214        C  0.43185369  0.13398408  0.95189022    -0.08400
C215        C  0.47051917  0.13865668  0.91259636     0.61900
H216        H  0.40805770  0.19555219  0.92104584     0.12600
H217        H  0.38371181  0.06746581  0.05623620     0.12600
C218        C  0.32010586  0.12340744  0.06286371     0.62200
F219        F  0.47346547  0.10930166  0.87617418    -0.23000
F220        F  0.50119221  0.13068622  0.93813287    -0.20300
F221        F  0.47399372  0.18042061  0.88569269    -0.20000
F222        F  0.29100538  0.12534052  0.03482191    -0.20100
F223        F  0.31321119  0.15590960  0.09584295    -0.20400
F224        F  0.31852657  0.08336191  0.09388610    -0.23000
C225        C  0.11685076  0.08706465  0.96191476    -0.05900
C226        C  0.08192400  0.08615093  0.00006443     0.00000
C227        C  0.07512527  0.11657290  0.03758108    -0.08500
C228        C  0.10450363  0.14515903  0.03698955    -0.05900
C229        C  0.14009644  0.14522182  0.00015047     0.00000
C230        C  0.14632151  0.11600557  0.96134207    -0.08400
C231        C  0.18415596  0.11400419  0.92084775     0.61900
H232        H  0.12131106  0.06397444  0.93317562     0.12600
H233        H  0.09998165  0.16756005  0.06649354     0.12600
C234        C  0.03716020  0.11956864  0.07817938     0.62200
F235        F  0.18520240  0.08066343  0.88982947    -0.23000
F236        F  0.21528710  0.10666090  0.94555500    -0.20300
F237        F  0.18821232  0.15310386  0.88839894    -0.20000
F238        F  0.00563657  0.12080434  0.05443718    -0.20100
F239        F  0.03415249  0.15708621  0.10303687    -0.20400
F240        F  0.03526027  0.08376730  0.11611862    -0.23000
O241        O  0.03348662  0.53541361  0.04284400    -0.74500
O242        O  0.45707783  0.95323037  0.04332845    -0.74600
O243        O  0.03389118  0.94723215  0.04621722    -0.74600
O244        O  0.45719548  0.54152321  0.03912755    -0.74700
O245        O  0.47296178  0.54631135  0.95199008    -0.74600
O246        O  0.05072160  0.95421458  0.95886456    -0.74600
O247        O  0.47392238  0.95790189  0.95602927    -0.74600
O248        O  0.04920093  0.54235108  0.95565195    -0.74600
Ni249      Ni  0.49485796  0.99406762  0.04602201     1.25400
Ni250      Ni  0.01223139  0.50033096  0.95251542     1.25400
C251        C  0.05340671  0.55311230  0.99948420     0.87600
C252        C  0.45284170  0.94222157  0.99977484     0.87600
C253        C  0.05530334  0.93582904  0.00361189     0.87600
C254        C  0.45293458  0.55989777  0.99404429     0.87800
O255        O  0.02927769  0.53975182  0.54043666    -0.74500
O256        O  0.45066355  0.95795782  0.54717815    -0.74600
O257        O  0.02846624  0.95168671  0.54299545    -0.74600
O258        O  0.45144875  0.54625981  0.54447079    -0.74700
O259        O  0.46341915  0.55338791  0.45713487    -0.74600
O260        O  0.04020723  0.95877799  0.45585186    -0.74600
O261        O  0.46225472  0.96526729  0.45991483    -0.74600
O262        O  0.04089444  0.54709089  0.45304579    -0.74600
Ni263      Ni  0.48954193  0.99865872  0.54688762     1.25400
Ni264      Ni  0.00206533  0.50630421  0.45338489     1.25400
C265        C  0.04817600  0.55653702  0.49579383     0.87600
C266        C  0.44343388  0.94821854  0.50454215     0.87600
C267        C  0.04720269  0.93965489  0.49919817     0.87600
C268        C  0.44488898  0.56547940  0.50092618     0.87800
O269        O  0.21279326  0.75700722  0.12713142    -0.81000
O270        O  0.22922112  0.75456947  0.89113541    -0.65700
O271        O  0.23785588  0.72112663  0.03288257    -1.12300
C272        C  0.34152136  0.81758337  0.98942638     1.05900
O273        O  0.29283065  0.74544957  0.86288647    -0.78900
O274        O  0.33765663  0.71999850  0.93286527    -0.66500
Ni275      Ni  0.19315443  0.71821123  0.08863943     1.34900
C276        C  0.33796797  0.70285566  0.97928661     0.84600
O277        O  0.19146824  0.69592030  0.96776268    -0.79400
O278        O  0.17032893  0.67897205  0.05468266    -0.89700
C279        C  0.25887229  0.75274587  0.85381259     0.84200
O280        O  0.16293323  0.76634491  0.06262888    -0.67900
O281        O  0.34582582  0.80605524  0.94367769    -0.87200
C282        C  0.16594509  0.78985756  0.01888287     0.85000
C283        C  0.16973069  0.67478023  0.00730596     1.06600
H284        H  0.26025320  0.80721756  0.95701723     0.38400
O285        O  0.27118413  0.77754800  0.96061036    -1.09900
O286        O  0.31687152  0.71792877  0.01939774    -0.66500
Ni287      Ni  0.27577988  0.76296662  0.03181681     1.26300
O288        O  0.19255263  0.78336655  0.97902201    -0.66700
O289        O  0.31368088  0.80575837  0.02753221    -0.79000
C290        C  0.24562613  0.75090329  0.13970008     0.84400
O291        O  0.27647237  0.74811642  0.10454817    -0.66200
Ni292      Ni  0.31705844  0.77512084  0.90660939     1.27400
Ni293      Ni  0.23160510  0.73722852  0.96281504     1.26100
H294        H  0.25028126  0.69201281  0.03417412     0.39000
O295        O  0.20481562  0.75792583  0.63066788    -0.81000
O296        O  0.22481847  0.75309096  0.39046212    -0.65700
O297        O  0.22946225  0.72371380  0.53449026    -1.12300
C298        C  0.32864522  0.82857615  0.48895766     1.05900
O299        O  0.28854720  0.74273689  0.36925466    -0.78900
O300        O  0.33715580  0.73321276  0.43553288    -0.66500
Ni301      Ni  0.18337217  0.72345731  0.58850351     1.34900
C302        C  0.33486818  0.71217312  0.48060006     0.84600
O303        O  0.18663911  0.69606496  0.46669041    -0.79400
O304        O  0.15762676  0.68804722  0.55226855    -0.89700
C305        C  0.25590179  0.74901492  0.35601812     0.84200
O306        O  0.15879953  0.77580310  0.56167134    -0.67900
O307        O  0.33116647  0.82107240  0.44181553    -0.86200
C308        C  0.16131067  0.79623268  0.51621847     0.85000
C309        C  0.16110616  0.67969494  0.50522316     1.06600
H310        H  0.25068057  0.80930753  0.45958775     0.38400
O311        O  0.26284788  0.78014892  0.46222968    -1.09900
O312        O  0.30848064  0.72060718  0.51996593    -0.66500
Ni313      Ni  0.26769014  0.76562648  0.53301021     1.26300
O314        O  0.18449358  0.78395924  0.47582114    -0.66700
O315        O  0.30596828  0.80866555  0.52849550    -0.79000
C316        C  0.23843123  0.75337361  0.64131140     0.84400
O317        O  0.26875596  0.75057361  0.60532202    -0.66200
Ni318      Ni  0.30831356  0.78162959  0.40771854     1.27400
Ni319      Ni  0.22492802  0.73836608  0.46320299     1.26100
H320        H  0.24142350  0.69455612  0.53754267     0.39000
C321        C  0.27348096  0.77585555  0.70494299    -0.05900
C322        C  0.24224960  0.75403461  0.69617945     0.00000
C323        C  0.21597634  0.73280941  0.73959511    -0.08500
C324        C  0.22194354  0.73460078  0.79029593    -0.05900
C325        C  0.25373088  0.75524335  0.79905867     0.00000
C326        C  0.27972409  0.77711895  0.75573645    -0.08400
C327        C  0.31308895  0.80305704  0.76271166     0.61900
H328        H  0.29304838  0.79210249  0.67139941     0.12600
H329        H  0.20198167  0.71908240  0.82376064     0.12600
C330        C  0.18267040  0.70669129  0.73287095     0.62200
F331        F  0.33053443  0.82709268  0.71632652    -0.23000
F332        F  0.34144187  0.77488548  0.77944002    -0.20300
F333        F  0.29926795  0.83219227  0.79912566    -0.20000
F334        F  0.19661247  0.67694169  0.69723364    -0.20100
F335        F  0.15455323  0.73474006  0.71534214    -0.20400
F336        F  0.16495143  0.68325547  0.77951762    -0.23000
C337        C  0.27666814  0.77295780  0.20738472    -0.05900
C338        C  0.24779451  0.74940089  0.19537356     0.00000
C339        C  0.22181022  0.72505116  0.23640387    -0.08500
C340        C  0.22547988  0.72584681  0.28838417    -0.05900
C341        C  0.25421402  0.74961361  0.30035969     0.00000
C342        C  0.28019092  0.77391654  0.25938985    -0.08400
C343        C  0.31063617  0.80202862  0.27037675     0.61900
H344        H  0.29618996  0.79123713  0.17552216     0.12600
H345        H  0.20594723  0.70764039  0.32031166     0.12600
C346        C  0.19093431  0.69740203  0.22565967     0.62200
F347        F  0.32811516  0.82833972  0.22588750    -0.23000
F348        F  0.33952193  0.77547448  0.28820025    -0.20300
F349        F  0.29339526  0.82921243  0.30777047    -0.20000
F350        F  0.20772178  0.67003133  0.18828277    -0.20100
F351        F  0.16221693  0.72436272  0.20800307    -0.20400
F352        F  0.17326163  0.67133473  0.27026816    -0.23000
C353        C  0.09863551  0.90060781  0.54013045    -0.05900
C354        C  0.07805066  0.90402094  0.49959415     0.00000
C355        C  0.08706570  0.87338740  0.46214182    -0.08500
C356        C  0.11539213  0.83945855  0.46820529    -0.05900
C357        C  0.13478741  0.83526839  0.50996584     0.00000
C358        C  0.12739992  0.86731274  0.54554509    -0.08400
C359        C  0.15059163  0.86763281  0.58794962     0.61900
H360        H  0.09201073  0.92454558  0.56790630     0.12600
H361        H  0.12205928  0.81515649  0.44085079     0.12600
C362        C  0.06638062  0.87536073  0.41686268     0.62200
F363        F  0.14362587  0.90617572  0.61114145    -0.23000
F364        F  0.19006675  0.86393126  0.56634121    -0.20300
F365        F  0.14051637  0.83324712  0.62686505    -0.20000
F366        F  0.02643714  0.87616959  0.43555557    -0.20100
F367        F  0.07648833  0.83939949  0.38924040    -0.20400
F368        F  0.07643018  0.91258257  0.38229950    -0.23000
C369        C  0.38678583  0.93062292  0.47169239    -0.05900
C370        C  0.41205965  0.91815098  0.50596502     0.00000
C371        C  0.40748047  0.87747526  0.53847384    -0.08500
C372        C  0.37864674  0.84970340  0.53338728    -0.05900
C373        C  0.35454303  0.86156828  0.49735435     0.00000
C374        C  0.35765307  0.90334822  0.46726348    -0.08400
C375        C  0.32981526  0.91971576  0.43146114     0.61900
H376        H  0.39024957  0.96214188  0.44790534     0.12600
H377        H  0.37548481  0.81782018  0.55636675     0.12600
C378        C  0.43361658  0.86272298  0.57693883     0.62200
F379        F  0.33317905  0.96404359  0.41437463    -0.23000
F380        F  0.29176900  0.91345825  0.45817261    -0.20300
F381        F  0.33761513  0.89737907  0.38776262    -0.20000
F382        F  0.47234518  0.86425790  0.55128547    -0.20100
F383        F  0.42694106  0.82019244  0.60025113    -0.20400
F384        F  0.42659117  0.88990856  0.61621178    -0.23000
C385        C  0.42897909  0.64083972  0.46619897    -0.05900
C386        C  0.41662760  0.60328311  0.50018537     0.00000
C387        C  0.37790888  0.60220150  0.52994392    -0.08500
C388        C  0.35227913  0.63874820  0.52296608    -0.05900
C389        C  0.36422326  0.67590044  0.48741932     0.00000
C390        C  0.40373215  0.67758870  0.45963731    -0.08400
C391        C  0.41985197  0.71784963  0.42363225     0.61900
H392        H  0.45887783  0.64097092  0.44428678     0.12600
H393        H  0.32230769  0.63815582  0.54448747     0.12600
C394        C  0.36332406  0.56212408  0.56726661     0.62200
F395        F  0.46018155  0.71519093  0.40976615    -0.23000
F396        F  0.40915120  0.75519403  0.44851212    -0.20300
F397        F  0.40581351  0.72175931  0.37805122    -0.20000
F398        F  0.38289406  0.55601678  0.60799030    -0.20100
F399        F  0.36956374  0.52534958  0.54080735    -0.20400
F400        F  0.32385232  0.56650166  0.58872004    -0.23000
C401        C  0.13968558  0.60415280  0.51497943    -0.05900
C402        C  0.13422637  0.64834016  0.49606839     0.00000
C403        C  0.10184484  0.66192937  0.47310729    -0.08500
C404        C  0.07450724  0.63075473  0.47255132    -0.05900
C405        C  0.07912603  0.58695577  0.49381965     0.00000
C406        C  0.11292891  0.57288416  0.51327717    -0.08400
C407        C  0.12107272  0.52481400  0.53073967     0.61900
H408        H  0.16493996  0.59443167  0.53175984     0.12600
H409        H  0.04878395  0.64054391  0.45683450     0.12600
C410        C  0.09578258  0.70929329  0.45085414     0.62200
F411        F  0.15785592  0.51730142  0.54169901    -0.23000
F412        F  0.11891794  0.50006946  0.49123914    -0.20300
F413        F  0.09400319  0.51103661  0.57541199    -0.20000
F414        F  0.12749501  0.72143935  0.41150488    -0.20100
F415        F  0.09179951  0.73622049  0.49005332    -0.20400
F416        F  0.06273343  0.71554053  0.42983283    -0.23000
C417        C  0.07096556  0.85858206  0.02963066    -0.05900
C418        C  0.08455096  0.89951704  0.00618920     0.00000
C419        C  0.12487074  0.90452200  0.98545384    -0.08500
C420        C  0.15061796  0.86773501  0.99001347    -0.05900
C421        C  0.13707262  0.82672658  0.01432079     0.00000
C422        C  0.09644500  0.82167506  0.03327469    -0.08400
C423        C  0.07963922  0.77730662  0.05495047     0.61900
H424        H  0.03989336  0.85566674  0.04448997     0.12600
H425        H  0.18166648  0.87082654  0.97528284     0.12600
C426        C  0.14065695  0.94869986  0.96036691     0.62200
F427        F  0.03947444  0.77870496  0.06119586    -0.23000
F428        F  0.08848985  0.76372322  0.10331571    -0.20300
F429        F  0.09493930  0.74695360  0.02065775    -0.20000
F430        F  0.12955753  0.97940525  0.99545265    -0.20100
F431        F  0.12624608  0.96230317  0.91582170    -0.20400
F432        F  0.18096006  0.94686823  0.94596359    -0.23000
C433        C  0.35695342  0.89020145  0.00732191    -0.05900
C434        C  0.37008275  0.84743455  0.99724847     0.00000
C435        C  0.41036683  0.83534284  0.99010042    -0.08500
C436        C  0.43655238  0.86733294  0.99165916    -0.05900
C437        C  0.42351220  0.91039762  0.00013848     0.00000
C438        C  0.38321048  0.92224558  0.00852748    -0.08400
C439        C  0.36832192  0.96881863  0.01710324     0.61900
H440        H  0.32604252  0.89866509  0.01241893     0.12600
H441        H  0.46754648  0.85911435  0.98578199     0.12600
C442        C  0.42550261  0.78878760  0.98153095     0.62200
F443        F  0.32837359  0.97404141  0.02140436    -0.23000
F444        F  0.38596208  0.99768852  0.97530376    -0.20300
F445        F  0.37687947  0.97933469  0.06272015    -0.20000
F446        F  0.42028874  0.77929618  0.93369126    -0.20100
F447        F  0.40556526  0.75951208  0.02101403    -0.20400
F448        F  0.46483980  0.78289627  0.98182303    -0.23000
C449        C  0.40270427  0.66741502  0.95048719    -0.05900
C450        C  0.36647472  0.66557045  0.98591674     0.00000
C451        C  0.35920239  0.62899181  0.02507064    -0.08500
C452        C  0.38867675  0.59571822  0.02691005    -0.05900
C453        C  0.42432919  0.59719978  0.99045943     0.00000
C454        C  0.43185617  0.63398443  0.95189107    -0.08400
C455        C  0.47052245  0.63865737  0.91259901     0.61900
H456        H  0.40806205  0.69555502  0.92104990     0.12600
H457        H  0.38371165  0.56746407  0.05623275     0.12600
C458        C  0.32010805  0.62340916  0.06286423     0.62200
F459        F  0.47346884  0.60930468  0.87617417    -0.23000
F460        F  0.50119462  0.63068379  0.93813678    -0.20300
F461        F  0.47399860  0.68042237  0.88569849    -0.20000
F462        F  0.29100637  0.62534628  0.03482394    -0.20100
F463        F  0.31321669  0.65591003  0.09584521    -0.20400
F464        F  0.31852721  0.58336263  0.09388462    -0.23000
C465        C  0.11685259  0.58706126  0.96192454    -0.05900
C466        C  0.08192331  0.58615069  0.00006945     0.00000
C467        C  0.07512166  0.61657628  0.03758211    -0.08500
C468        C  0.10449948  0.64516317  0.03699163    -0.05900
C469        C  0.14009449  0.64522305  0.00015706     0.00000
C470        C  0.14632273  0.61600269  0.96135288    -0.08400
C471        C  0.18415997  0.61399773  0.92086417     0.61900
H472        H  0.12131514  0.56396842  0.93318818     0.12600
H473        H  0.09997522  0.66756728  0.06649250     0.12600
C474        C  0.03715408  0.61957483  0.07817504     0.62200
F475        F  0.18520996  0.58065208  0.88985171    -0.23000
F476        F  0.21528818  0.60665903  0.94557745    -0.20300
F477        F  0.18821845  0.65309413  0.88840894    -0.20000
F478        F  0.00563310  0.62080605  0.05442851    -0.20100
F479        F  0.03414344  0.65709592  0.10302665    -0.20400
F480        F  0.03525207  0.58377702  0.11611930    -0.23000
O481        O  0.53348835  0.03541379  0.04284084    -0.74500
O482        O  0.95707889  0.45322758  0.04332643    -0.74600
O483        O  0.53389131  0.44723160  0.04621964    -0.74600
O484        O  0.95719641  0.04152573  0.03912897    -0.74700
O485        O  0.97295973  0.04631241  0.95199150    -0.74600
O486        O  0.55072332  0.45421318  0.95886714    -0.74600
O487        O  0.97392478  0.45790030  0.95602727    -0.74600
O488        O  0.54919949  0.04235230  0.95564872    -0.74600
Ni489      Ni  0.99485747  0.49406610  0.04602253     1.25400
Ni490      Ni  0.51222940  0.00033227  0.95251479     1.25400
C491        C  0.55340705  0.05311287  0.99948039     0.87600
C492        C  0.95284375  0.44221906  0.99977217     0.87600
C493        C  0.55530419  0.43582803  0.00361505     0.87600
C494        C  0.95293399  0.05989953  0.99404603     0.87800
O495        O  0.52927878  0.03975140  0.54043364    -0.74500
O496        O  0.95066374  0.45795664  0.54718015    -0.74600
O497        O  0.52846641  0.45168728  0.54299805    -0.74600
O498        O  0.95145013  0.04626065  0.54446854    -0.74700
O499        O  0.96342032  0.05338921  0.45713252    -0.74600
O500        O  0.54020794  0.45877920  0.45585437    -0.74600
O501        O  0.96225578  0.46526595  0.45991679    -0.74600
O502        O  0.54089563  0.04708997  0.45304282    -0.74600
Ni503      Ni  0.98954132  0.49865849  0.54689016     1.25400
Ni504      Ni  0.50206550  0.00630430  0.45338238     1.25400
C505        C  0.54817715  0.05653639  0.49579078     0.87600
C506        C  0.94343486  0.44821688  0.50454388     0.87600
C507        C  0.54720327  0.43965606  0.49920067     0.87600
C508        C  0.94489049  0.06548057  0.50092405     0.87800
O509        O  0.71279151  0.25700078  0.12713219    -0.81000
O510        O  0.72922122  0.25457333  0.89113346    -0.65700
O511        O  0.73785684  0.22112470  0.03287962    -1.12300
C512        C  0.84152017  0.31758233  0.98942984     1.05900
O513        O  0.79283096  0.24545572  0.86288261    -0.78900
O514        O  0.83765279  0.21999664  0.93286467    -0.66500
Ni515      Ni  0.69315570  0.21820509  0.08863671     1.34900
C516        C  0.83796562  0.20285477  0.97928600     0.84600
O517        O  0.69146920  0.19592089  0.96775741    -0.79400
O518        O  0.67033322  0.17896599  0.05467684    -0.89700
C519        C  0.75887219  0.25275124  0.85380995     0.84200
O520        O  0.66293219  0.26633797  0.06262898    -0.67900
O521        O  0.84582647  0.30605223  0.94368187    -0.87200
C522        C  0.66594423  0.28985394  0.01888510     0.85000
C523        C  0.66973341  0.17477773  0.00729975     1.06600
H524        H  0.76025272  0.30721853  0.95701717     0.38400
O525        O  0.77118368  0.27754903  0.96061002    -1.09900
O526        O  0.81687163  0.21792988  0.01939731    -0.66500
Ni527      Ni  0.77577877  0.26296620  0.03181666     1.26300
O528        O  0.69255237  0.28336596  0.97902366    -0.66700
O529        O  0.81367809  0.30575933  0.02753430    -0.79000
C530        C  0.74562470  0.25089964  0.13970028     0.84400
O531        O  0.77647091  0.24811462  0.10454793    -0.66200
Ni532      Ni  0.81705863  0.27512186  0.90661016     1.27400
Ni533      Ni  0.73160548  0.23722935  0.96281254     1.26100
H534        H  0.75028276  0.19201302  0.03416896     0.39000
O535        O  0.70481500  0.25792542  0.63066701    -0.81000
O536        O  0.72481959  0.25309262  0.39046047    -0.65700
O537        O  0.72946161  0.22371423  0.53448884    -1.12300
C538        C  0.82864658  0.32857459  0.48895699     1.05900
O539        O  0.78854808  0.24273499  0.36925523    -0.78900
O540        O  0.83715757  0.23321265  0.43553309    -0.66500
Ni541      Ni  0.68337142  0.22345797  0.58850182     1.34900
C542        C  0.83486878  0.21217249  0.48060022     0.84600
O543        O  0.68663774  0.19606782  0.46668793    -0.79400
O544        O  0.65762565  0.18804905  0.55226608    -0.89700
C545        C  0.75590311  0.24901399  0.35601745     0.84200
O546        O  0.65879980  0.27580436  0.56167000    -0.67900
O547        O  0.83116719  0.32107182  0.44181462    -0.86200
C548        C  0.66131169  0.29623476  0.51621750     0.85000
C549        C  0.66110472  0.17969759  0.50522046     1.06600
H550        H  0.75068228  0.30930750  0.45958694     0.38400
O551        O  0.76284885  0.28014865  0.46222884    -1.09900
O552        O  0.80848001  0.22060540  0.51996528    -0.66500
Ni553      Ni  0.76769047  0.26562570  0.53300928     1.26300
O554        O  0.68449464  0.28396169  0.47581994    -0.66700
O555        O  0.80596986  0.30866350  0.52849480    -0.79000
C556        C  0.73843070  0.25337360  0.64131024     0.84400
O557        O  0.76875548  0.25057265  0.60532114    -0.66200
Ni558      Ni  0.80831460  0.28162852  0.40771803     1.27400
Ni559      Ni  0.72492795  0.23836735  0.46320149     1.26100
H560        H  0.74142235  0.19455624  0.53754097     0.39000
C561        C  0.77347994  0.27585883  0.70494016    -0.05900
C562        C  0.74224908  0.25403639  0.69617776     0.00000
C563        C  0.71597629  0.23281150  0.73959405    -0.08500
C564        C  0.72194290  0.23460556  0.79029448    -0.05900
C565        C  0.75373020  0.25524872  0.79905627     0.00000
C566        C  0.77972337  0.27712346  0.75573319    -0.08400
C567        C  0.81308906  0.30306107  0.76270665     0.61900
H568        H  0.79304710  0.29210531  0.67139594     0.12600
H569        H  0.70198075  0.21908850  0.82375962     0.12600
C570        C  0.68267177  0.20669051  0.73287109     0.62200
F571        F  0.83053326  0.32709718  0.71632112    -0.23000
F572        F  0.84144251  0.27488884  0.77943259    -0.20300
F573        F  0.79926970  0.33219584  0.79912164    -0.20000
F574        F  0.69661517  0.17694104  0.69723403    -0.20100
F575        F  0.65455297  0.23473691  0.71534270    -0.20400
F576        F  0.66495457  0.18325406  0.77951829    -0.23000
C577        C  0.77667177  0.27294925  0.20738302    -0.05900
C578        C  0.74779359  0.24939803  0.19537373     0.00000
C579        C  0.72180644  0.22505340  0.23640576    -0.08500
C580        C  0.72547732  0.22584938  0.28838545    -0.05900
C581        C  0.75421572  0.24961084  0.30035906     0.00000
C582        C  0.78019641  0.27390743  0.25938752    -0.08400
C583        C  0.81064859  0.30201144  0.27037157     0.61900
H584        H  0.79619618  0.29122420  0.17551936     0.12600
H585        H  0.70594199  0.20764753  0.32031411     0.12600
C586        C  0.69092556  0.19740969  0.22566461     0.62200
F587        F  0.82813133  0.32831829  0.22588083    -0.23000
F588        F  0.83953040  0.27544988  0.28819458    -0.20300
F589        F  0.79341476  0.32919893  0.30776442    -0.20000
F590        F  0.70770721  0.17003803  0.18828626    -0.20100
F591        F  0.66220952  0.22437539  0.20801178    -0.20400
F592        F  0.67325254  0.17134359  0.27027396    -0.23000
C593        C  0.59863702  0.40060970  0.54013158    -0.05900
C594        C  0.57805144  0.40402258  0.49959611     0.00000
C595        C  0.58706531  0.37338865  0.46214429    -0.08500
C596        C  0.61539279  0.33946077  0.46820593    -0.05900
C597        C  0.63478883  0.33527073  0.50996564     0.00000
C598        C  0.62740119  0.36731430  0.54554592    -0.08400
C599        C  0.65059134  0.36763223  0.58795261     0.61900
H600        H  0.59201230  0.42454718  0.56790774     0.12600
H601        H  0.62205959  0.31515881  0.44085127     0.12600
C602        C  0.56637694  0.37535969  0.41686865     0.62200
F603        F  0.64362566  0.40617452  0.61114573    -0.23000
F604        F  0.69006679  0.36392954  0.56634668    -0.20300
F605        F  0.64051393  0.33324604  0.62686665    -0.20000
F606        F  0.52643394  0.37616866  0.43556598    -0.20100
F607        F  0.57648273  0.33939708  0.38924837    -0.20400
F608        F  0.57642460  0.41258040  0.38230259    -0.23000
C609        C  0.88678844  0.43062038  0.47169171    -0.05900
C610        C  0.91206113  0.41814889  0.50596590     0.00000
C611        C  0.90748103  0.37747360  0.53847550    -0.08500
C612        C  0.87864762  0.34970164  0.53338798    -0.05900
C613        C  0.85454475  0.36156633  0.49735387     0.00000
C614        C  0.85765570  0.40334595  0.46726230    -0.08400
C615        C  0.82981866  0.41971377  0.43145898     0.61900
H616        H  0.89025283  0.46213905  0.44790408     0.12600
H617        H  0.87548504  0.31781870  0.55636802     0.12600
C618        C  0.93361542  0.36272216  0.57694294     0.62200
F619        F  0.83318276  0.46404163  0.41437280    -0.23000
F620        F  0.79177213  0.41345643  0.45816937    -0.20300
F621        F  0.83761923  0.39737729  0.38776026    -0.20000
F622        F  0.97234460  0.36425676  0.55129208    -0.20100
F623        F  0.92693924  0.32019195  0.60025602    -0.20400
F624        F  0.92658834  0.38990864  0.61621505    -0.23000
C625        C  0.92898210  0.14084420  0.46620610    -0.05900
C626        C  0.91662898  0.10328391  0.50018429     0.00000
C627        C  0.87790837  0.10219820  0.52993606    -0.08500
C628        C  0.85227830  0.13874474  0.52295950    -0.05900
C629        C  0.86422407  0.17590060  0.48742032     0.00000
C630        C  0.90373470  0.17759310  0.45964604    -0.08400
C631        C  0.91985552  0.21785836  0.42365084     0.61900
H632        H  0.95888227  0.14097833  0.44429900     0.12600
H633        H  0.82230541  0.13814938  0.54447532     0.12600
C634        C  0.86332218  0.06211645  0.56724956     0.62200
F635        F  0.96018556  0.21520354  0.40979519    -0.23000
F636        F  0.90914762  0.25519908  0.44853589    -0.20300
F637        F  0.90582461  0.22177192  0.37806373    -0.20000
F638        F  0.88288801  0.05600348  0.60797747    -0.20100
F639        F  0.86956588  0.02534640  0.54078238    -0.20400
F640        F  0.82384937  0.06649109  0.58869777    -0.23000
C641        C  0.63968347  0.10415574  0.51498175    -0.05900
C642        C  0.63422546  0.14834210  0.49606576     0.00000
C643        C  0.60184558  0.16192946  0.47310044    -0.08500
C644        C  0.57450893  0.13075378  0.47254399    -0.05900
C645        C  0.57912671  0.08695581  0.49381668     0.00000
C646        C  0.61292758  0.07288618  0.51327987    -0.08400
C647        C  0.62107048  0.02481699  0.53074849     0.61900
H648        H  0.66493642  0.09443614  0.53176577     0.12600
H649        H  0.54878696  0.14054151  0.45682364     0.12600
C650        C  0.59578368  0.20929254  0.45084388     0.62200
F651        F  0.65785196  0.01730622  0.54171393    -0.23000
F652        F  0.61891944  0.00006900  0.49124957    -0.20300
F653        F  0.59399824  0.01104199  0.57541899    -0.20000
F654        F  0.62749692  0.22143738  0.41149537    -0.20100
F655        F  0.59179915  0.23622187  0.49004119    -0.20400
F656        F  0.56273541  0.21553815  0.42982054    -0.23000
C657        C  0.57096586  0.35858261  0.02964297    -0.05900
C658        C  0.58455140  0.39951570  0.00619404     0.00000
C659        C  0.62487080  0.40451844  0.98545369    -0.08500
C660        C  0.65061726  0.36773080  0.99001317    -0.05900
C661        C  0.63707184  0.32672386  0.01432626     0.00000
C662        C  0.59644452  0.32167502  0.03328817    -0.08400
C663        C  0.57963768  0.27730903  0.05497514     0.61900
H664        H  0.53989401  0.35566918  0.04450748     0.12600
H665        H  0.68166544  0.37082070  0.97527752     0.12600
C666        C  0.64065773  0.44869482  0.96036192     0.62200
F667        F  0.53947261  0.27870828  0.06122381    -0.23000
F668        F  0.58849027  0.26373352  0.10334094    -0.20300
F669        F  0.59493488  0.24694964  0.02068967    -0.20000
F670        F  0.62955973  0.47940300  0.99544438    -0.20100
F671        F  0.62624627  0.46229523  0.91581657    -0.20400
F672        F  0.68096080  0.44686190  0.94595760    -0.23000
C673        C  0.85695457  0.39020460  0.00730870    -0.05900
C674        C  0.87008146  0.34743355  0.99725179     0.00000
C675        C  0.91036417  0.33533769  0.99011586    -0.08500
C676        C  0.93655126  0.36732739  0.99167110    -0.05900
C677        C  0.92351361  0.41039588  0.00013479     0.00000
C678        C  0.88321303  0.42224817  0.00851081    -0.08400
C679        C  0.86832735  0.46882472  0.01707123     0.61900
H680        H  0.82604469  0.39867144  0.01239591     0.12600
H681        H  0.96754441  0.35910533  0.98580391     0.12600
C682        C  0.92549628  0.28877837  0.98156314     0.62200
F683        F  0.82838015  0.47405107  0.02136224    -0.23000
F684        F  0.88597440  0.49768666  0.97526791    -0.20300
F685        F  0.87687977  0.47934828  0.06268782    -0.20000
F686        F  0.92028327  0.27927566  0.93372767    -0.20100
F687        F  0.90555493  0.25951215  0.02105408    -0.20400
F688        F  0.96483271  0.28288507  0.98185916    -0.23000
C689        C  0.90270095  0.16741345  0.95048517    -0.05900
C690        C  0.86647204  0.16556932  0.98591591     0.00000
C691        C  0.85920059  0.12899160  0.02507144    -0.08500
C692        C  0.88867604  0.09571944  0.02691258    -0.05900
C693        C  0.92432818  0.09720104  0.99046134     0.00000
C694        C  0.93185362  0.13398407  0.95189028    -0.08400
C695        C  0.97051908  0.13865666  0.91259639     0.61900
H696        H  0.90805765  0.19555219  0.92104590     0.12600
H697        H  0.88371174  0.06746582  0.05623628     0.12600
C698        C  0.82010577  0.12340746  0.06286373     0.62200
F699        F  0.97346536  0.10930164  0.87617421    -0.23000
F700        F  0.00119214  0.13068620  0.93813287    -0.20300
F701        F  0.97399363  0.18042058  0.88569271    -0.20000
F702        F  0.79100533  0.12534054  0.03482189    -0.20100
F703        F  0.81321108  0.15590963  0.09584296    -0.20400
F704        F  0.81852646  0.08336193  0.09388613    -0.23000
C705        C  0.61685079  0.08706465  0.96191472    -0.05900
C706        C  0.58192404  0.08615092  0.00006441     0.00000
C707        C  0.57512532  0.11657288  0.03758106    -0.08500
C708        C  0.60450368  0.14515903  0.03698950    -0.05900
C709        C  0.64009648  0.14522182  0.00015040     0.00000
C710        C  0.64632154  0.11600556  0.96134202    -0.08400
C711        C  0.68415600  0.11400415  0.92084771     0.61900
H712        H  0.62131108  0.06397444  0.93317558     0.12600
H713        H  0.59998172  0.16756004  0.06649348     0.12600
C714        C  0.53716027  0.11956863  0.07817940     0.62200
F715        F  0.68520245  0.08066339  0.88982945    -0.23000
F716        F  0.71528713  0.10666087  0.94555500    -0.20300
F717        F  0.68821239  0.15310382  0.88839889    -0.20000
F718        F  0.50563662  0.12080434  0.05443724    -0.20100
F719        F  0.53415259  0.15708620  0.10303689    -0.20400
F720        F  0.53526036  0.08376728  0.11611863    -0.23000
O721        O  0.53348661  0.53541369  0.04284390    -0.74500
O722        O  0.95707778  0.95323043  0.04332853    -0.74600
O723        O  0.53389124  0.94723216  0.04621716    -0.74600
O724        O  0.95719549  0.54152320  0.03912762    -0.74700
O725        O  0.97296178  0.54631134  0.95199015    -0.74600
O726        O  0.55072162  0.95421456  0.95886449    -0.74600
O727        O  0.97392236  0.95790187  0.95602935    -0.74600
O728        O  0.54920094  0.54235107  0.95565184    -0.74600
Ni729      Ni  0.99485793  0.99406765  0.04602207     1.25400
Ni730      Ni  0.51223138  0.50033096  0.95251536     1.25400
C731        C  0.55340671  0.55311234  0.99948408     0.87600
C732        C  0.95284167  0.94222158  0.99977493     0.87600
C733        C  0.55530338  0.93582904  0.00361182     0.87600
C734        C  0.95293458  0.55989776  0.99404436     0.87800
O735        O  0.52927767  0.53975183  0.54043665    -0.74500
O736        O  0.95066348  0.95795783  0.54717816    -0.74600
O737        O  0.52846631  0.95168678  0.54299539    -0.74600
O738        O  0.95144876  0.54625984  0.54447077    -0.74700
O739        O  0.96341916  0.55338792  0.45713485    -0.74600
O740        O  0.54020724  0.95877801  0.45585181    -0.74600
O741        O  0.96225473  0.96526726  0.45991484    -0.74600
O742        O  0.54089443  0.54709089  0.45304578    -0.74600
Ni743      Ni  0.98954189  0.99865869  0.54688766     1.25400
Ni744      Ni  0.50206532  0.50630420  0.45338489     1.25400
C745        C  0.54817597  0.55653704  0.49579382     0.87600
C746        C  0.94343385  0.94821853  0.50454214     0.87600
C747        C  0.54720274  0.93965493  0.49919811     0.87600
C748        C  0.94488898  0.56547941  0.50092616     0.87800
O749        O  0.71279322  0.75700719  0.12713140    -0.81000
O750        O  0.72922119  0.75456951  0.89113535    -0.65700
O751        O  0.73785592  0.72112665  0.03288252    -1.12300
C752        C  0.84152140  0.81758334  0.98942644     1.05900
O753        O  0.79283072  0.74544964  0.86288639    -0.78900
O754        O  0.83765656  0.71999839  0.93286532    -0.66500
Ni755      Ni  0.69315444  0.71821121  0.08863937     1.34900
C756        C  0.83796795  0.70285563  0.97928667     0.84600
O757        O  0.69146828  0.69592033  0.96776260    -0.79400
O758        O  0.67032898  0.67897201  0.05468257    -0.89700
C759        C  0.75887236  0.75274592  0.85381252     0.84200
O760        O  0.66293323  0.76634488  0.06262882    -0.67900
O761        O  0.84582593  0.80605510  0.94367779    -0.87200
C762        C  0.66594512  0.78985756  0.01888282     0.85000
C763        C  0.66973075  0.67478022  0.00730586     1.06600
H764        H  0.76025321  0.80721773  0.95701714     0.38400
O765        O  0.77118418  0.77754800  0.96061032    -1.09900
O766        O  0.81687156  0.71792883  0.01939778    -0.66500
Ni767      Ni  0.77577989  0.76296666  0.03181679     1.26300
O768        O  0.69255268  0.78336658  0.97902198    -0.66700
O769        O  0.81368085  0.80575844  0.02753222    -0.79000
C770        C  0.74562609  0.75090330  0.13970006     0.84400
O771        O  0.77647234  0.74811648  0.10454816    -0.66200
Ni772      Ni  0.81705852  0.77512080  0.90660941     1.27400
Ni773      Ni  0.73160515  0.73722855  0.96281498     1.26100
H774        H  0.75028130  0.69201286  0.03417407     0.39000
O775        O  0.70481562  0.75792581  0.63066786    -0.81000
O776        O  0.72481848  0.75309093  0.39046208    -0.65700
O777        O  0.72946224  0.72371381  0.53449023    -1.12300
C778        C  0.82864521  0.82857614  0.48895761     1.05900
O779        O  0.78854722  0.74273688  0.36925460    -0.78900
O780        O  0.83715578  0.73321272  0.43553285    -0.66500
Ni781      Ni  0.68337217  0.72345731  0.58850348     1.34900
C782        C  0.83486815  0.71217311  0.48060004     0.84600
O783        O  0.68663912  0.69606492  0.46669038    -0.79400
O784        O  0.65762674  0.68804724  0.55226851    -0.89700
C785        C  0.75590180  0.74901489  0.35601807     0.84200
O786        O  0.65879954  0.77580311  0.56167131    -0.67900
O787        O  0.83116648  0.82107236  0.44181549    -0.86200
C788        C  0.66131067  0.79623267  0.51621843     0.85000
C789        C  0.66110615  0.67969493  0.50522313     1.06600
H790        H  0.75068071  0.80930718  0.45958772     0.38400
O791        O  0.76284785  0.78014895  0.46222963    -1.09900
O792        O  0.80848063  0.72060719  0.51996591    -0.66500
Ni793      Ni  0.76769012  0.76562648  0.53301017     1.26300
O794        O  0.68449356  0.78395922  0.47582110    -0.66700
O795        O  0.80596825  0.80866557  0.52849545    -0.79000
C796        C  0.73843124  0.75337361  0.64131135     0.84400
O797        O  0.76875595  0.75057362  0.60532196    -0.66200
Ni798      Ni  0.80831357  0.78162956  0.40771850     1.27400
Ni799      Ni  0.72492802  0.73836607  0.46320295     1.26100
H800        H  0.74142350  0.69455610  0.53754264     0.39000
C801        C  0.77348100  0.77585554  0.70494291    -0.05900
C802        C  0.74224962  0.75403462  0.69617940     0.00000
C803        C  0.71597638  0.73280942  0.73959508    -0.08500
C804        C  0.72194360  0.73460079  0.79029588    -0.05900
C805        C  0.75373094  0.75524337  0.79905860     0.00000
C806        C  0.77972415  0.77711895  0.75573636    -0.08400
C807        C  0.81308900  0.80305707  0.76271154     0.61900
H808        H  0.79304841  0.79210248  0.67139932     0.12600
H809        H  0.70198174  0.71908240  0.82376061     0.12600
C810        C  0.68267044  0.70669128  0.73287094     0.62200
F811        F  0.83053450  0.82709266  0.71632638    -0.23000
F812        F  0.84144191  0.77488554  0.77943996    -0.20300
F813        F  0.79926798  0.83219234  0.79912548    -0.20000
F814        F  0.69661251  0.67694169  0.69723362    -0.20100
F815        F  0.65455326  0.73474004  0.71534215    -0.20400
F816        F  0.66495150  0.68325546  0.77951762    -0.23000
C817        C  0.77666812  0.77295778  0.20738469    -0.05900
C818        C  0.74779447  0.74940089  0.19537354     0.00000
C819        C  0.72181018  0.72505116  0.23640386    -0.08500
C820        C  0.72547986  0.72584678  0.28838415    -0.05900
C821        C  0.75421402  0.74961358  0.30035966     0.00000
C822        C  0.78019092  0.77391651  0.25938981    -0.08400
C823        C  0.81063621  0.80202855  0.27037668     0.61900
H824        H  0.79618994  0.79123709  0.17552212     0.12600
H825        H  0.70594723  0.70764037  0.32031165     0.12600
C826        C  0.69093423  0.69740206  0.22565968     0.62200
F827        F  0.82811511  0.82833974  0.22588745    -0.23000
F828        F  0.83952202  0.77547437  0.28819999    -0.20300
F829        F  0.79339538  0.82921228  0.30777052    -0.20000
F830        F  0.70772167  0.67003135  0.18828278    -0.20100
F831        F  0.66221687  0.72436278  0.20800309    -0.20400
F832        F  0.67326155  0.67133478  0.27026818    -0.23000
C833        C  0.59863552  0.90060782  0.54013042    -0.05900
C834        C  0.57805070  0.90402098  0.49959409     0.00000
C835        C  0.58706575  0.87338745  0.46214174    -0.08500
C836        C  0.61539215  0.83945858  0.46820524    -0.05900
C837        C  0.63478742  0.83526839  0.50996581     0.00000
C838        C  0.62739992  0.86731273  0.54554507    -0.08400
C839        C  0.65059162  0.86763279  0.58794962     0.61900
H840        H  0.59201074  0.92454559  0.56790628     0.12600
H841        H  0.62205931  0.81515652  0.44085072     0.12600
C842        C  0.56638068  0.87536080  0.41686259     0.62200
F843        F  0.64362589  0.90617571  0.61114142    -0.23000
F844        F  0.69006674  0.86393118  0.56634124    -0.20300
F845        F  0.64051630  0.83324712  0.62686507    -0.20000
F846        F  0.52643721  0.87616965  0.43555546    -0.20100
F847        F  0.57648842  0.83939960  0.38924026    -0.20400
F848        F  0.57643025  0.91258267  0.38229945    -0.23000
C849        C  0.88678588  0.93062287  0.47169227    -0.05900
C850        C  0.91205964  0.91815097  0.50596498     0.00000
C851        C  0.90748042  0.87747527  0.53847383    -0.08500
C852        C  0.87864669  0.84970341  0.53338728    -0.05900
C853        C  0.85454302  0.86156828  0.49735429     0.00000
C854        C  0.85765312  0.90334818  0.46726334    -0.08400
C855        C  0.82981537  0.91971569  0.43146091     0.61900
H856        H  0.89024965  0.96214182  0.44790517     0.12600
H857        H  0.87548472  0.81782022  0.55636679     0.12600
C858        C  0.93361651  0.86272298  0.57693886     0.62200
F859        F  0.83317923  0.96404350  0.41437428    -0.23000
F860        F  0.79176909  0.91345828  0.45817232    -0.20300
F861        F  0.83761526  0.89737892  0.38776245    -0.20000
F862        F  0.97234511  0.86425791  0.55128553    -0.20100
F863        F  0.92694098  0.82019245  0.60025115    -0.20400
F864        F  0.92659108  0.88990857  0.61621180    -0.23000
C865        C  0.92897907  0.64083973  0.46619897    -0.05900
C866        C  0.91662759  0.60328310  0.50018535     0.00000
C867        C  0.87790886  0.60220147  0.52994387    -0.08500
C868        C  0.85227911  0.63874817  0.52296605    -0.05900
C869        C  0.86422323  0.67590043  0.48741931     0.00000
C870        C  0.90373212  0.67758870  0.45963731    -0.08400
C871        C  0.91985194  0.71784964  0.42363226     0.61900
H872        H  0.95887782  0.64097094  0.44428678     0.12600
H873        H  0.82230766  0.63815578  0.54448743     0.12600
C874        C  0.86332405  0.56212403  0.56726652     0.62200
F875        F  0.96018152  0.71519096  0.40976621    -0.23000
F876        F  0.90915113  0.75519403  0.44851212    -0.20300
F877        F  0.90581351  0.72175929  0.37805120    -0.20000
F878        F  0.88289403  0.55601671  0.60799022    -0.20100
F879        F  0.86956376  0.52534955  0.54080721    -0.20400
F880        F  0.82385230  0.56650157  0.58871992    -0.23000
C881        C  0.63968555  0.60415280  0.51497941    -0.05900
C882        C  0.63422636  0.64834016  0.49606836     0.00000
C883        C  0.60184483  0.66192938  0.47310726    -0.08500
C884        C  0.57450721  0.63075476  0.47255131    -0.05900
C885        C  0.57912599  0.58695580  0.49381964     0.00000
C886        C  0.61292887  0.57288418  0.51327716    -0.08400
C887        C  0.62107265  0.52481402  0.53073967     0.61900
H888        H  0.66493993  0.59443166  0.53175982     0.12600
H889        H  0.54878392  0.64054395  0.45683449     0.12600
C890        C  0.59578261  0.70929331  0.45085406     0.62200
F891        F  0.65785585  0.51730140  0.54169902    -0.23000
F892        F  0.61891785  0.50006948  0.49123915    -0.20300
F893        F  0.59400311  0.51103665  0.57541199    -0.20000
F894        F  0.62749508  0.72143933  0.41150485    -0.20100
F895        F  0.59179951  0.73622052  0.49005323    -0.20400
F896        F  0.56273350  0.71554055  0.42983268    -0.23000
C897        C  0.57096558  0.85858206  0.02963051    -0.05900
C898        C  0.58455100  0.89951705  0.00618912     0.00000
C899        C  0.62487078  0.90452202  0.98545382    -0.08500
C900        C  0.65061800  0.86773503  0.99001348    -0.05900
C901        C  0.63707265  0.82672659  0.01432075     0.00000
C902        C  0.59644501  0.82167506  0.03327460    -0.08400
C903        C  0.57963922  0.77730664  0.05495042     0.61900
H904        H  0.53989338  0.85566674  0.04448976     0.12600
H905        H  0.68166652  0.87082657  0.97528289     0.12600
C906        C  0.64065699  0.94869988  0.96036690     0.62200
F907        F  0.53947443  0.77870501  0.06119589    -0.23000
F908        F  0.58848989  0.76372325  0.10331564    -0.20300
F909        F  0.59493924  0.74695361  0.02065770    -0.20000
F910        F  0.62955759  0.97940526  0.99545266    -0.20100
F911        F  0.62624609  0.96230322  0.91582172    -0.20400
F912        F  0.68096010  0.94686825  0.94596353    -0.23000
C913        C  0.85695343  0.89020143  0.00732195    -0.05900
C914        C  0.87008277  0.84743454  0.99724853     0.00000
C915        C  0.91036686  0.83534284  0.99010051    -0.08500
C916        C  0.93655239  0.86733295  0.99165930    -0.05900
C917        C  0.92351219  0.91039763  0.00013858     0.00000
C918        C  0.88321047  0.92224558  0.00852752    -0.08400
C919        C  0.86832191  0.96881866  0.01710316     0.61900
H920        H  0.82604252  0.89866507  0.01241893     0.12600
H921        H  0.96754649  0.85911436  0.98578217     0.12600
C922        C  0.92550266  0.78878761  0.98153100     0.62200
F923        F  0.82837357  0.97404140  0.02140437    -0.23000
F924        F  0.88596200  0.99768847  0.97530355    -0.20300
F925        F  0.87687952  0.97933486  0.06271995    -0.20000
F926        F  0.92028886  0.77929624  0.93369125    -0.20100
F927        F  0.90556528  0.75951205  0.02101400    -0.20400
F928        F  0.96483984  0.78289628  0.98182317    -0.23000
C929        C  0.90270424  0.66741499  0.95048725    -0.05900
C930        C  0.86647469  0.66557042  0.98591680     0.00000
C931        C  0.85920236  0.62899177  0.02507069    -0.08500
C932        C  0.88867672  0.59571818  0.02691009    -0.05900
C933        C  0.92432917  0.59719975  0.99045949     0.00000
C934        C  0.93185614  0.63398440  0.95189112    -0.08400
C935        C  0.97052241  0.63865736  0.91259904     0.61900
H936        H  0.90806201  0.69555499  0.92104997     0.12600
H937        H  0.88371161  0.56746402  0.05623279     0.12600
C938        C  0.82010801  0.62340914  0.06286427     0.62200
F939        F  0.97346883  0.60930464  0.87617423    -0.23000
F940        F  0.00119458  0.63068383  0.93813681    -0.20300
F941        F  0.97399853  0.68042234  0.88569848    -0.20000
F942        F  0.79100633  0.62534631  0.03482397    -0.20100
F943        F  0.81321669  0.65591001  0.09584526    -0.20400
F944        F  0.81852715  0.58336260  0.09388463    -0.23000
C945        C  0.61685262  0.58706127  0.96192442    -0.05900
C946        C  0.58192332  0.58615074  0.00006930     0.00000
C947        C  0.57512167  0.61657636  0.03758193    -0.08500
C948        C  0.60449951  0.64516321  0.03699147    -0.05900
C949        C  0.64009454  0.64522305  0.00015694     0.00000
C950        C  0.64632279  0.61600267  0.96135278    -0.08400
C951        C  0.68416006  0.61399765  0.92086414     0.61900
H952        H  0.62131518  0.56396840  0.93318809     0.12600
H953        H  0.59997527  0.66756733  0.06649234     0.12600
C954        C  0.53715408  0.61957498  0.07817483     0.62200
F955        F  0.68521002  0.58065203  0.88985164    -0.23000
F956        F  0.71528821  0.60665886  0.94557750    -0.20300
F957        F  0.68821863  0.65309407  0.88840893    -0.20000
F958        F  0.50563310  0.62080617  0.05442830    -0.20100
F959        F  0.53414345  0.65709613  0.10302634    -0.20400
F960        F  0.53525205  0.58377723  0.11611917    -0.23000
loop_ 
_geom_bond_atom_site_label_1 
_geom_bond_atom_site_label_2 
_geom_bond_distance 
_geom_bond_site_symmetry_2 
_ccdc_geom_bond_type 
O1           C11   1.279   1_554  A
O1         Ni729   1.909   1_445  S
O2           C12   1.278   1_554  A
O2           Ni9   1.912       .  S
O3           C13   1.282       .  A
O3         Ni489   1.918   1_455  S
O4           C14   1.282   1_554  A
O4         Ni249   1.918   1_545  S
O5           C14   1.278       .  A
O5         Ni490   1.906       .  S
O6           C13   1.277   1_556  A
O6         Ni250   1.907       .  S
O7           C12   1.282       .  A
O7         Ni730   1.923       .  S
O8           C11   1.282       .  A
O8          Ni10   1.920       .  S
Ni9         O721   1.909       .  S
Ni9         O483   1.918       .  S
Ni9         O244   1.918       .  S
Ni9        Ni730   2.389   1_554  S
Ni10        O485   1.906   1_455  S
Ni10        O246   1.907   1_545  S
Ni10        O727   1.923   1_445  S
Ni10       Ni729   2.389   1_446  S
C11         C226   1.482   1_556  S
C12         C197   1.470   1_556  S
C13         C178   1.469       .  S
C14         C213   1.479       .  S
O15          C25   1.281       .  A
O15        Ni743   1.917   1_445  S
O16          C26   1.280       .  A
O16         Ni23   1.918       .  S
O17          C27   1.282       .  A
O17        Ni503   1.915   1_455  S
O18          C28   1.280       .  A
O18        Ni263   1.918   1_545  S
O19          C28   1.281       .  A
O19        Ni504   1.911       .  S
O20          C27   1.280       .  A
O20        Ni264   1.917       .  S
O21          C26   1.282       .  A
O21        Ni744   1.918       .  S
O22          C25   1.280       .  A
O22         Ni24   1.918       .  S
Ni23        O735   1.917       .  S
Ni23        O497   1.915       .  S
Ni23        O258   1.918       .  S
Ni23       Ni744   2.388       .  S
Ni24        O499   1.911   1_455  S
Ni24        O260   1.917   1_545  S
Ni24        O741   1.918   1_445  S
Ni24       Ni743   2.388   1_445  S
C25         C165   1.474       .  S
C26         C130   1.482       .  S
C27         C114   1.487       .  S
C28         C146   1.476       .  S
O29          C50   1.265       .  A
O29         Ni35   1.915       .  S
O30          C39   1.271       .  A
O30         Ni53   1.912       .  S
O31         Ni35   1.901       .  S
O31         Ni53   1.903   1_554  S
O31         Ni47   1.913       .  S
O31          H54   0.968       .  S
C32          O49   1.275   1_556  A
C32          O41   1.274       .  A
C32         C194   1.472       .  S
O33          C39   1.268       .  A
O33         Ni52   1.923       .  S
O34          C36   1.269       .  A
O34         Ni52   1.902       .  S
Ni35         O38   1.906       .  S
Ni35         O40   1.903       .  S
C36          O46   1.271   1_556  A
C36         C210   1.487       .  S
O37          C43   1.281   1_556  A
O37         Ni53   1.939       .  S
O38          C43   1.275       .  A
C39          C85   1.483       .  S
O40          C42   1.266       .  A
O41         Ni52   1.922       .  S
C42          O48   1.271   1_554  A
C42         C181   1.479       .  S
C43         C229   1.489       .  S
H44          O45   0.966       .  S
O45         Ni53   1.917       .  S
O45         Ni47   1.910   1_556  S
O45         Ni52   1.908       .  S
O46         Ni47   1.934       .  S
Ni47         O51   1.915       .  S
Ni47         O49   1.916       .  S
O48         Ni53   1.925       .  S
C50          O51   1.269       .  A
C50          C98   1.479       .  S
O55          C76   1.268       .  A
O55         Ni61   1.926       .  S
O56          C65   1.269       .  A
O56         Ni79   1.911       .  S
O57         Ni61   1.909       .  S
O57         Ni79   1.911       .  S
O57         Ni73   1.920       .  S
O57          H80   0.964       .  S
C58          O75   1.280       .  A
C58          O67   1.275       .  A
C58         C133   1.479       .  S
O59          C65   1.267       .  A
O59         Ni78   1.919       .  S
O60          C62   1.265       .  A
O60         Ni78   1.900       .  S
Ni61         O64   1.925       .  S
Ni61         O66   1.901       .  S
C62          O72   1.272       .  A
C62         C149   1.486       .  S
O63          C69   1.275       .  A
O63         Ni79   1.919       .  S
O64          C69   1.275       .  A
C65         C101   1.477       .  S
O66          C68   1.266       .  A
O67         Ni78   1.914       .  S
C68          O74   1.273       .  A
C68         C117   1.482       .  S
C69         C162   1.474       .  S
H70          O71   0.967       .  S
O71         Ni79   1.912       .  S
O71         Ni73   1.901       .  S
O71         Ni78   1.900       .  S
O72         Ni73   1.928       .  S
Ni73         O77   1.908       .  S
Ni73         O75   1.930       .  S
O74         Ni79   1.931       .  S
C76          O77   1.269       .  A
C76          C82   1.483       .  S
C81          C82   1.403       .  A
C81          C86   1.408       .  A
C81          H88   1.083       .  S
C82          C83   1.421       .  A
C83          C84   1.404       .  A
C83          C90   1.521       .  S
C84          C85   1.400       .  A
C84          H89   1.080       .  S
C85          C86   1.423       .  A
C86          C87   1.522       .  S
C87          F91   1.385       .  S
C87          F92   1.382       .  S
C87          F93   1.384       .  S
C90          F94   1.384       .  S
C90          F95   1.382       .  S
C90          F96   1.385       .  S
C97          C98   1.401       .  A
C97         C102   1.406       .  A
C97         H104   1.083       .  S
C98          C99   1.422       .  A
C99         C100   1.406       .  A
C99         C106   1.521       .  S
C100        C101   1.401       .  A
C100        H105   1.083       .  S
C101        C102   1.420       .  A
C102        C103   1.521       .  S
C103        F107   1.385       .  S
C103        F108   1.382       .  S
C103        F109   1.384       .  S
C106        F110   1.384       .  S
C106        F111   1.382       .  S
C106        F112   1.385       .  S
C113        C114   1.405       .  A
C113        C118   1.404       .  A
C113        H120   1.082       .  S
C114        C115   1.422       .  A
C115        C116   1.409       .  A
C115        C122   1.520       .  S
C116        C117   1.404       .  A
C116        H121   1.083       .  S
C117        C118   1.418       .  A
C118        C119   1.522       .  S
C119        F123   1.385       .  S
C119        F124   1.384       .  S
C119        F125   1.382       .  S
C122        F126   1.384       .  S
C122        F127   1.385       .  S
C122        F128   1.383       .  S
C129        C130   1.402       .  A
C129        C134   1.403       .  A
C129        H136   1.083       .  S
C130        C131   1.420       .  A
C131        C132   1.411       .  A
C131        C138   1.519       .  S
C132        C133   1.404       .  A
C132        H137   1.083       .  S
C133        C134   1.418       .  A
C134        C135   1.521       .  S
C135        F139   1.385       .  S
C135        F140   1.384       .  S
C135        F141   1.382       .  S
C138        F142   1.384       .  S
C138        F143   1.385       .  S
C138        F144   1.383       .  S
C145        C146   1.400       .  A
C145        C150   1.404       .  A
C145        H152   1.084       .  S
C146        C147   1.416       .  A
C147        C148   1.409       .  A
C147        C154   1.519       .  S
C148        C149   1.407       .  A
C148        H153   1.083       .  S
C149        C150   1.424       .  A
C150        C151   1.522       .  S
C151        F155   1.385       .  S
C151        F156   1.384       .  S
C151        F157   1.383       .  S
C154        F158   1.383       .  S
C154        F159   1.384       .  S
C154        F160   1.384       .  S
C161        C162   1.401       .  A
C161        C166   1.405       .  A
C161        H168   1.083       .  S
C162        C163   1.416       .  A
C163        C164   1.410       .  A
C163        C170   1.517       .  S
C164        C165   1.403       .  A
C164        H169   1.083       .  S
C165        C166   1.414       .  A
C166        C167   1.517       .  S
C167        F171   1.384       .  S
C167        F172   1.383       .  S
C167        F173   1.382       .  S
C170        F174   1.383       .  S
C170        F175   1.383       .  S
C170        F176   1.385       .  S
C177        C178   1.397       .  A
C177        C182   1.402       .  A
C177        H184   1.084       .  S
C178        C179   1.416   1_554  A
C179        C180   1.408       .  A
C179        C186   1.519       .  S
C180        C181   1.404   1_556  A
C180        H185   1.083       .  S
C181        C182   1.420       .  A
C182        C183   1.518       .  S
C183        F187   1.385       .  S
C183        F188   1.382       .  S
C183        F189   1.382       .  S
C186        F190   1.383       .  S
C186        F191   1.382       .  S
C186        F192   1.385       .  S
C193        C194   1.401   1_554  A
C193        C198   1.406       .  A
C193        H200   1.083       .  S
C194        C195   1.417       .  A
C195        C196   1.406       .  A
C195        C202   1.519       .  S
C196        C197   1.400   1_556  A
C196        H201   1.084       .  S
C197        C198   1.415       .  A
C198        C199   1.517       .  S
C199        F203   1.385       .  S
C199        F204   1.383   1_554  S
C199        F205   1.382       .  S
C202        F206   1.382       .  S
C202        F207   1.383   1_556  S
C202        F208   1.385       .  S
C209        C210   1.406       .  A
C209        C214   1.402       .  A
C209        H216   1.083       .  S
C210        C211   1.422   1_556  A
C211        C212   1.408       .  A
C211        C218   1.518       .  S
C212        C213   1.403   1_554  A
C212        H217   1.082       .  S
C213        C214   1.418       .  A
C214        C215   1.522       .  S
C215        F219   1.383       .  S
C215        F220   1.384       .  S
C215        F221   1.385       .  S
C218        F222   1.381       .  S
C218        F223   1.382       .  S
C218        F224   1.385       .  S
C225        C226   1.406   1_556  A
C225        C230   1.411       .  A
C225        H232   1.083       .  S
C226        C227   1.418       .  A
C227        C228   1.401       .  A
C227        C234   1.523       .  S
C228        C229   1.407       .  A
C228        H233   1.083       .  S
C229        C230   1.418   1_554  A
C230        C231   1.516       .  S
C231        F235   1.385       .  S
C231        F236   1.383       .  S
C231        F237   1.379       .  S
C234        F238   1.383       .  S
C234        F239   1.385       .  S
C234        F240   1.383       .  S
O241        C251   1.279   1_554  A
O241       Ni489   1.909   1_455  S
O242        C252   1.278   1_554  A
O242       Ni249   1.912       .  S
O243        C253   1.282       .  A
O243       Ni729   1.918   1_455  S
O244        C254   1.282   1_554  A
O245        C254   1.278       .  A
O245       Ni730   1.906       .  S
O246        C253   1.277   1_556  A
O247        C252   1.282       .  A
O247       Ni490   1.923   1_565  S
O248        C251   1.282       .  A
O248       Ni250   1.920       .  S
Ni249       O481   1.909   1_565  S
Ni249       O723   1.918       .  S
Ni249      Ni490   2.389   1_564  S
Ni250       O725   1.906   1_455  S
Ni250       O487   1.923   1_455  S
Ni250      Ni489   2.389   1_456  S
C251        C466   1.482   1_556  S
C252        C437   1.470   1_556  S
C253        C418   1.469       .  S
C254        C453   1.479       .  S
O255        C265   1.281       .  A
O255       Ni503   1.917   1_455  S
O256        C266   1.280       .  A
O256       Ni263   1.918       .  S
O257        C267   1.282       .  A
O257       Ni743   1.915   1_455  S
O258        C268   1.280       .  A
O259        C268   1.281       .  A
O259       Ni744   1.911       .  S
O260        C267   1.280       .  A
O261        C266   1.282       .  A
O261       Ni504   1.918   1_565  S
O262        C265   1.280       .  A
O262       Ni264   1.918       .  S
Ni263       O495   1.917   1_565  S
Ni263       O737   1.915       .  S
Ni263      Ni504   2.388   1_565  S
Ni264       O739   1.911   1_455  S
Ni264       O501   1.918   1_455  S
Ni264      Ni503   2.388   1_455  S
C265        C405   1.474       .  S
C266        C370   1.482       .  S
C267        C354   1.487       .  S
C268        C386   1.476       .  S
O269        C290   1.265       .  A
O269       Ni275   1.915       .  S
O270        C279   1.271       .  A
O270       Ni293   1.912       .  S
O271       Ni275   1.901       .  S
O271       Ni293   1.903   1_554  S
O271       Ni287   1.913       .  S
O271        H294   0.968       .  S
C272        O289   1.275   1_556  A
C272        O281   1.274       .  A
C272        C434   1.472       .  S
O273        C279   1.268       .  A
O273       Ni292   1.923       .  S
O274        C276   1.269       .  A
O274       Ni292   1.902       .  S
Ni275       O278   1.906       .  S
Ni275       O280   1.903       .  S
C276        O286   1.271   1_556  A
C276        C450   1.487       .  S
O277        C283   1.281   1_556  A
O277       Ni293   1.939       .  S
O278        C283   1.275       .  A
C279        C325   1.483       .  S
O280        C282   1.266       .  A
O281       Ni292   1.922       .  S
C282        O288   1.271   1_554  A
C282        C421   1.479       .  S
C283        C469   1.489       .  S
H284        O285   0.966       .  S
O285       Ni293   1.917       .  S
O285       Ni287   1.910   1_556  S
O285       Ni292   1.908       .  S
O286       Ni287   1.934       .  S
Ni287       O291   1.915       .  S
Ni287       O289   1.916       .  S
O288       Ni293   1.925       .  S
C290        O291   1.269       .  A
C290        C338   1.479       .  S
O295        C316   1.268       .  A
O295       Ni301   1.926       .  S
O296        C305   1.269       .  A
O296       Ni319   1.911       .  S
O297       Ni301   1.909       .  S
O297       Ni319   1.911       .  S
O297       Ni313   1.920       .  S
O297        H320   0.964       .  S
C298        O315   1.280       .  A
C298        O307   1.275       .  A
C298        C373   1.479       .  S
O299        C305   1.267       .  A
O299       Ni318   1.919       .  S
O300        C302   1.265       .  A
O300       Ni318   1.900       .  S
Ni301       O304   1.925       .  S
Ni301       O306   1.901       .  S
C302        O312   1.272       .  A
C302        C389   1.486       .  S
O303        C309   1.275       .  A
O303       Ni319   1.919       .  S
O304        C309   1.275       .  A
C305        C341   1.477       .  S
O306        C308   1.266       .  A
O307       Ni318   1.914       .  S
C308        O314   1.273       .  A
C308        C357   1.482       .  S
C309        C402   1.474       .  S
H310        O311   0.967       .  S
O311       Ni319   1.912       .  S
O311       Ni313   1.901       .  S
O311       Ni318   1.900       .  S
O312       Ni313   1.928       .  S
Ni313       O317   1.908       .  S
Ni313       O315   1.930       .  S
O314       Ni319   1.931       .  S
C316        O317   1.269       .  A
C316        C322   1.483       .  S
C321        C322   1.403       .  A
C321        C326   1.408       .  A
C321        H328   1.083       .  S
C322        C323   1.421       .  A
C323        C324   1.404       .  A
C323        C330   1.521       .  S
C324        C325   1.400       .  A
C324        H329   1.080       .  S
C325        C326   1.423       .  A
C326        C327   1.522       .  S
C327        F331   1.385       .  S
C327        F332   1.382       .  S
C327        F333   1.384       .  S
C330        F334   1.384       .  S
C330        F335   1.382       .  S
C330        F336   1.385       .  S
C337        C338   1.401       .  A
C337        C342   1.406       .  A
C337        H344   1.083       .  S
C338        C339   1.422       .  A
C339        C340   1.406       .  A
C339        C346   1.521       .  S
C340        C341   1.401       .  A
C340        H345   1.083       .  S
C341        C342   1.420       .  A
C342        C343   1.521       .  S
C343        F347   1.385       .  S
C343        F348   1.382       .  S
C343        F349   1.384       .  S
C346        F350   1.384       .  S
C346        F351   1.382       .  S
C346        F352   1.385       .  S
C353        C354   1.405       .  A
C353        C358   1.404       .  A
C353        H360   1.082       .  S
C354        C355   1.422       .  A
C355        C356   1.409       .  A
C355        C362   1.520       .  S
C356        C357   1.404       .  A
C356        H361   1.083       .  S
C357        C358   1.418       .  A
C358        C359   1.522       .  S
C359        F363   1.385       .  S
C359        F364   1.384       .  S
C359        F365   1.382       .  S
C362        F366   1.384       .  S
C362        F367   1.385       .  S
C362        F368   1.383       .  S
C369        C370   1.402       .  A
C369        C374   1.403       .  A
C369        H376   1.083       .  S
C370        C371   1.420       .  A
C371        C372   1.411       .  A
C371        C378   1.519       .  S
C372        C373   1.404       .  A
C372        H377   1.083       .  S
C373        C374   1.418       .  A
C374        C375   1.521       .  S
C375        F379   1.385       .  S
C375        F380   1.384       .  S
C375        F381   1.382       .  S
C378        F382   1.384       .  S
C378        F383   1.385       .  S
C378        F384   1.383       .  S
C385        C386   1.400       .  A
C385        C390   1.404       .  A
C385        H392   1.084       .  S
C386        C387   1.416       .  A
C387        C388   1.409       .  A
C387        C394   1.519       .  S
C388        C389   1.407       .  A
C388        H393   1.083       .  S
C389        C390   1.424       .  A
C390        C391   1.522       .  S
C391        F395   1.385       .  S
C391        F396   1.384       .  S
C391        F397   1.383       .  S
C394        F398   1.383       .  S
C394        F399   1.384       .  S
C394        F400   1.384       .  S
C401        C402   1.401       .  A
C401        C406   1.405       .  A
C401        H408   1.083       .  S
C402        C403   1.416       .  A
C403        C404   1.410       .  A
C403        C410   1.517       .  S
C404        C405   1.403       .  A
C404        H409   1.083       .  S
C405        C406   1.414       .  A
C406        C407   1.517       .  S
C407        F411   1.384       .  S
C407        F412   1.383       .  S
C407        F413   1.382       .  S
C410        F414   1.383       .  S
C410        F415   1.383       .  S
C410        F416   1.385       .  S
C417        C418   1.397       .  A
C417        C422   1.402       .  A
C417        H424   1.084       .  S
C418        C419   1.416   1_554  A
C419        C420   1.408       .  A
C419        C426   1.519       .  S
C420        C421   1.404   1_556  A
C420        H425   1.083       .  S
C421        C422   1.420       .  A
C422        C423   1.518       .  S
C423        F427   1.385       .  S
C423        F428   1.382       .  S
C423        F429   1.382       .  S
C426        F430   1.383       .  S
C426        F431   1.382       .  S
C426        F432   1.385       .  S
C433        C434   1.401   1_554  A
C433        C438   1.406       .  A
C433        H440   1.083       .  S
C434        C435   1.417       .  A
C435        C436   1.406       .  A
C435        C442   1.519       .  S
C436        C437   1.400   1_556  A
C436        H441   1.084       .  S
C437        C438   1.415       .  A
C438        C439   1.517       .  S
C439        F443   1.385       .  S
C439        F444   1.383   1_554  S
C439        F445   1.382       .  S
C442        F446   1.382       .  S
C442        F447   1.383   1_556  S
C442        F448   1.385       .  S
C449        C450   1.406       .  A
C449        C454   1.402       .  A
C449        H456   1.083       .  S
C450        C451   1.422   1_556  A
C451        C452   1.408       .  A
C451        C458   1.518       .  S
C452        C453   1.403   1_554  A
C452        H457   1.082       .  S
C453        C454   1.418       .  A
C454        C455   1.522       .  S
C455        F459   1.383       .  S
C455        F460   1.384       .  S
C455        F461   1.385       .  S
C458        F462   1.381       .  S
C458        F463   1.382       .  S
C458        F464   1.385       .  S
C465        C466   1.406   1_556  A
C465        C470   1.411       .  A
C465        H472   1.083       .  S
C466        C467   1.418       .  A
C467        C468   1.401       .  A
C467        C474   1.523       .  S
C468        C469   1.407       .  A
C468        H473   1.083       .  S
C469        C470   1.418   1_554  A
C470        C471   1.516       .  S
C471        F475   1.385       .  S
C471        F476   1.383       .  S
C471        F477   1.379       .  S
C474        F478   1.383       .  S
C474        F479   1.385       .  S
C474        F480   1.383       .  S
O481        C491   1.279   1_554  A
O482        C492   1.278   1_554  A
O482       Ni489   1.912       .  S
O483        C493   1.282       .  A
O484        C494   1.282   1_554  A
O484       Ni729   1.918   1_545  S
O485        C494   1.278       .  A
O486        C493   1.277   1_556  A
O486       Ni730   1.907       .  S
O487        C492   1.282       .  A
O488        C491   1.282       .  A
O488       Ni490   1.920       .  S
Ni489       O724   1.918       .  S
Ni490       O726   1.907   1_545  S
C491        C706   1.482   1_556  S
C492        C677   1.470   1_556  S
C493        C658   1.469       .  S
C494        C693   1.479       .  S
O495        C505   1.281       .  A
O496        C506   1.280       .  A
O496       Ni503   1.918       .  S
O497        C507   1.282       .  A
O498        C508   1.280       .  A
O498       Ni743   1.918   1_545  S
O499        C508   1.281       .  A
O500        C507   1.280       .  A
O500       Ni744   1.917       .  S
O501        C506   1.282       .  A
O502        C505   1.280       .  A
O502       Ni504   1.918       .  S
Ni503       O738   1.918       .  S
Ni504       O740   1.917   1_545  S
C505        C645   1.474       .  S
C506        C610   1.482       .  S
C507        C594   1.487       .  S
C508        C626   1.476       .  S
O509        C530   1.265       .  A
O509       Ni515   1.915       .  S
O510        C519   1.271       .  A
O510       Ni533   1.912       .  S
O511       Ni515   1.901       .  S
O511       Ni533   1.903   1_554  S
O511       Ni527   1.913       .  S
O511        H534   0.968       .  S
C512        O529   1.275   1_556  A
C512        O521   1.274       .  A
C512        C674   1.472       .  S
O513        C519   1.268       .  A
O513       Ni532   1.923       .  S
O514        C516   1.269       .  A
O514       Ni532   1.902       .  S
Ni515       O518   1.906       .  S
Ni515       O520   1.903       .  S
C516        O526   1.271   1_556  A
C516        C690   1.487       .  S
O517        C523   1.281   1_556  A
O517       Ni533   1.939       .  S
O518        C523   1.275       .  A
C519        C565   1.483       .  S
O520        C522   1.266       .  A
O521       Ni532   1.922       .  S
C522        O528   1.271   1_554  A
C522        C661   1.479       .  S
C523        C709   1.489       .  S
H524        O525   0.966       .  S
O525       Ni533   1.917       .  S
O525       Ni527   1.910   1_556  S
O525       Ni532   1.908       .  S
O526       Ni527   1.934       .  S
Ni527       O531   1.915       .  S
Ni527       O529   1.916       .  S
O528       Ni533   1.925       .  S
C530        O531   1.269       .  A
C530        C578   1.479       .  S
O535        C556   1.268       .  A
O535       Ni541   1.926       .  S
O536        C545   1.269       .  A
O536       Ni559   1.911       .  S
O537       Ni541   1.909       .  S
O537       Ni559   1.911       .  S
O537       Ni553   1.920       .  S
O537        H560   0.964       .  S
C538        O555   1.280       .  A
C538        O547   1.275       .  A
C538        C613   1.479       .  S
O539        C545   1.267       .  A
O539       Ni558   1.919       .  S
O540        C542   1.265       .  A
O540       Ni558   1.900       .  S
Ni541       O544   1.925       .  S
Ni541       O546   1.901       .  S
C542        O552   1.272       .  A
C542        C629   1.486       .  S
O543        C549   1.275       .  A
O543       Ni559   1.919       .  S
O544        C549   1.275       .  A
C545        C581   1.477       .  S
O546        C548   1.266       .  A
O547       Ni558   1.914       .  S
C548        O554   1.273       .  A
C548        C597   1.482       .  S
C549        C642   1.474       .  S
H550        O551   0.967       .  S
O551       Ni559   1.912       .  S
O551       Ni553   1.901       .  S
O551       Ni558   1.900       .  S
O552       Ni553   1.928       .  S
Ni553       O557   1.908       .  S
Ni553       O555   1.930       .  S
O554       Ni559   1.931       .  S
C556        O557   1.269       .  A
C556        C562   1.483       .  S
C561        C562   1.403       .  A
C561        C566   1.408       .  A
C561        H568   1.083       .  S
C562        C563   1.421       .  A
C563        C564   1.404       .  A
C563        C570   1.521       .  S
C564        C565   1.400       .  A
C564        H569   1.080       .  S
C565        C566   1.423       .  A
C566        C567   1.522       .  S
C567        F571   1.385       .  S
C567        F572   1.382       .  S
C567        F573   1.384       .  S
C570        F574   1.384       .  S
C570        F575   1.382       .  S
C570        F576   1.385       .  S
C577        C578   1.401       .  A
C577        C582   1.406       .  A
C577        H584   1.083       .  S
C578        C579   1.422       .  A
C579        C580   1.406       .  A
C579        C586   1.521       .  S
C580        C581   1.401       .  A
C580        H585   1.083       .  S
C581        C582   1.420       .  A
C582        C583   1.521       .  S
C583        F587   1.385       .  S
C583        F588   1.382       .  S
C583        F589   1.384       .  S
C586        F590   1.384       .  S
C586        F591   1.382       .  S
C586        F592   1.385       .  S
C593        C594   1.405       .  A
C593        C598   1.404       .  A
C593        H600   1.082       .  S
C594        C595   1.422       .  A
C595        C596   1.409       .  A
C595        C602   1.520       .  S
C596        C597   1.404       .  A
C596        H601   1.083       .  S
C597        C598   1.418       .  A
C598        C599   1.522       .  S
C599        F603   1.385       .  S
C599        F604   1.384       .  S
C599        F605   1.382       .  S
C602        F606   1.384       .  S
C602        F607   1.385       .  S
C602        F608   1.383       .  S
C609        C610   1.402       .  A
C609        C614   1.403       .  A
C609        H616   1.083       .  S
C610        C611   1.420       .  A
C611        C612   1.411       .  A
C611        C618   1.519       .  S
C612        C613   1.404       .  A
C612        H617   1.083       .  S
C613        C614   1.418       .  A
C614        C615   1.521       .  S
C615        F619   1.385       .  S
C615        F620   1.384       .  S
C615        F621   1.382       .  S
C618        F622   1.384       .  S
C618        F623   1.385       .  S
C618        F624   1.383       .  S
C625        C626   1.400       .  A
C625        C630   1.404       .  A
C625        H632   1.084       .  S
C626        C627   1.416       .  A
C627        C628   1.409       .  A
C627        C634   1.519       .  S
C628        C629   1.407       .  A
C628        H633   1.083       .  S
C629        C630   1.424       .  A
C630        C631   1.522       .  S
C631        F635   1.385       .  S
C631        F636   1.384       .  S
C631        F637   1.383       .  S
C634        F638   1.383       .  S
C634        F639   1.384       .  S
C634        F640   1.384       .  S
C641        C642   1.401       .  A
C641        C646   1.405       .  A
C641        H648   1.083       .  S
C642        C643   1.416       .  A
C643        C644   1.410       .  A
C643        C650   1.517       .  S
C644        C645   1.403       .  A
C644        H649   1.083       .  S
C645        C646   1.414       .  A
C646        C647   1.517       .  S
C647        F651   1.384       .  S
C647        F652   1.383       .  S
C647        F653   1.382       .  S
C650        F654   1.383       .  S
C650        F655   1.383       .  S
C650        F656   1.385       .  S
C657        C658   1.397       .  A
C657        C662   1.402       .  A
C657        H664   1.084       .  S
C658        C659   1.416   1_554  A
C659        C660   1.408       .  A
C659        C666   1.519       .  S
C660        C661   1.404   1_556  A
C660        H665   1.083       .  S
C661        C662   1.420       .  A
C662        C663   1.518       .  S
C663        F667   1.385       .  S
C663        F668   1.382       .  S
C663        F669   1.382       .  S
C666        F670   1.383       .  S
C666        F671   1.382       .  S
C666        F672   1.385       .  S
C673        C674   1.401   1_554  A
C673        C678   1.406       .  A
C673        H680   1.083       .  S
C674        C675   1.417       .  A
C675        C676   1.406       .  A
C675        C682   1.519       .  S
C676        C677   1.400   1_556  A
C676        H681   1.084       .  S
C677        C678   1.415       .  A
C678        C679   1.517       .  S
C679        F683   1.385       .  S
C679        F684   1.383   1_554  S
C679        F685   1.382       .  S
C682        F686   1.382       .  S
C682        F687   1.383   1_556  S
C682        F688   1.385       .  S
C689        C690   1.406       .  A
C689        C694   1.402       .  A
C689        H696   1.083       .  S
C690        C691   1.422   1_556  A
C691        C692   1.408       .  A
C691        C698   1.518       .  S
C692        C693   1.403   1_554  A
C692        H697   1.082       .  S
C693        C694   1.418       .  A
C694        C695   1.522       .  S
C695        F699   1.383       .  S
C695        F700   1.384   1_655  S
C695        F701   1.385       .  S
C698        F702   1.381       .  S
C698        F703   1.382       .  S
C698        F704   1.385       .  S
C705        C706   1.406   1_556  A
C705        C710   1.411       .  A
C705        H712   1.083       .  S
C706        C707   1.418       .  A
C707        C708   1.401       .  A
C707        C714   1.523       .  S
C708        C709   1.407       .  A
C708        H713   1.083       .  S
C709        C710   1.418   1_554  A
C710        C711   1.516       .  S
C711        F715   1.385       .  S
C711        F716   1.383       .  S
C711        F717   1.379       .  S
C714        F718   1.383       .  S
C714        F719   1.385       .  S
C714        F720   1.383       .  S
O721        C731   1.279   1_554  A
O722        C732   1.278   1_554  A
O722       Ni729   1.912       .  S
O723        C733   1.282       .  A
O724        C734   1.282   1_554  A
O725        C734   1.278       .  A
O726        C733   1.277   1_556  A
O727        C732   1.282       .  A
O728        C731   1.282       .  A
O728       Ni730   1.920       .  S
C731        C946   1.482   1_556  S
C732        C917   1.470   1_556  S
C733        C898   1.469       .  S
C734        C933   1.479       .  S
O735        C745   1.281       .  A
O736        C746   1.280       .  A
O736       Ni743   1.918       .  S
O737        C747   1.282       .  A
O738        C748   1.280       .  A
O739        C748   1.281       .  A
O740        C747   1.280       .  A
O741        C746   1.282       .  A
O742        C745   1.280       .  A
O742       Ni744   1.918       .  S
C745        C885   1.474       .  S
C746        C850   1.482       .  S
C747        C834   1.487       .  S
C748        C866   1.476       .  S
O749        C770   1.265       .  A
O749       Ni755   1.915       .  S
O750        C759   1.271       .  A
O750       Ni773   1.912       .  S
O751       Ni755   1.901       .  S
O751       Ni773   1.903   1_554  S
O751       Ni767   1.913       .  S
O751        H774   0.968       .  S
C752        O769   1.275   1_556  A
C752        O761   1.274       .  A
C752        C914   1.472       .  S
O753        C759   1.268       .  A
O753       Ni772   1.923       .  S
O754        C756   1.269       .  A
O754       Ni772   1.902       .  S
Ni755       O758   1.906       .  S
Ni755       O760   1.903       .  S
C756        O766   1.271   1_556  A
C756        C930   1.487       .  S
O757        C763   1.281   1_556  A
O757       Ni773   1.939       .  S
O758        C763   1.275       .  A
C759        C805   1.483       .  S
O760        C762   1.266       .  A
O761       Ni772   1.922       .  S
C762        O768   1.271   1_554  A
C762        C901   1.479       .  S
C763        C949   1.489       .  S
H764        O765   0.966       .  S
O765       Ni773   1.917       .  S
O765       Ni767   1.910   1_556  S
O765       Ni772   1.908       .  S
O766       Ni767   1.934       .  S
Ni767       O771   1.915       .  S
Ni767       O769   1.916       .  S
O768       Ni773   1.925       .  S
C770        O771   1.269       .  A
C770        C818   1.479       .  S
O775        C796   1.268       .  A
O775       Ni781   1.926       .  S
O776        C785   1.269       .  A
O776       Ni799   1.911       .  S
O777       Ni781   1.909       .  S
O777       Ni799   1.911       .  S
O777       Ni793   1.920       .  S
O777        H800   0.964       .  S
C778        O795   1.280       .  A
C778        O787   1.275       .  A
C778        C853   1.479       .  S
O779        C785   1.267       .  A
O779       Ni798   1.919       .  S
O780        C782   1.265       .  A
O780       Ni798   1.900       .  S
Ni781       O784   1.925       .  S
Ni781       O786   1.901       .  S
C782        O792   1.272       .  A
C782        C869   1.486       .  S
O783        C789   1.275       .  A
O783       Ni799   1.919       .  S
O784        C789   1.275       .  A
C785        C821   1.477       .  S
O786        C788   1.266       .  A
O787       Ni798   1.914       .  S
C788        O794   1.273       .  A
C788        C837   1.482       .  S
C789        C882   1.474       .  S
H790        O791   0.967       .  S
O791       Ni799   1.912       .  S
O791       Ni793   1.901       .  S
O791       Ni798   1.900       .  S
O792       Ni793   1.928       .  S
Ni793       O797   1.908       .  S
Ni793       O795   1.930       .  S
O794       Ni799   1.931       .  S
C796        O797   1.269       .  A
C796        C802   1.483       .  S
C801        C802   1.403       .  A
C801        C806   1.408       .  A
C801        H808   1.083       .  S
C802        C803   1.421       .  A
C803        C804   1.404       .  A
C803        C810   1.521       .  S
C804        C805   1.400       .  A
C804        H809   1.080       .  S
C805        C806   1.423       .  A
C806        C807   1.522       .  S
C807        F811   1.385       .  S
C807        F812   1.382       .  S
C807        F813   1.384       .  S
C810        F814   1.384       .  S
C810        F815   1.382       .  S
C810        F816   1.385       .  S
C817        C818   1.401       .  A
C817        C822   1.406       .  A
C817        H824   1.083       .  S
C818        C819   1.422       .  A
C819        C820   1.406       .  A
C819        C826   1.521       .  S
C820        C821   1.401       .  A
C820        H825   1.083       .  S
C821        C822   1.420       .  A
C822        C823   1.521       .  S
C823        F827   1.385       .  S
C823        F828   1.382       .  S
C823        F829   1.384       .  S
C826        F830   1.384       .  S
C826        F831   1.382       .  S
C826        F832   1.385       .  S
C833        C834   1.405       .  A
C833        C838   1.404       .  A
C833        H840   1.082       .  S
C834        C835   1.422       .  A
C835        C836   1.409       .  A
C835        C842   1.520       .  S
C836        C837   1.404       .  A
C836        H841   1.083       .  S
C837        C838   1.418       .  A
C838        C839   1.522       .  S
C839        F843   1.385       .  S
C839        F844   1.384       .  S
C839        F845   1.382       .  S
C842        F846   1.384       .  S
C842        F847   1.385       .  S
C842        F848   1.383       .  S
C849        C850   1.402       .  A
C849        C854   1.403       .  A
C849        H856   1.083       .  S
C850        C851   1.420       .  A
C851        C852   1.411       .  A
C851        C858   1.519       .  S
C852        C853   1.404       .  A
C852        H857   1.083       .  S
C853        C854   1.418       .  A
C854        C855   1.521       .  S
C855        F859   1.385       .  S
C855        F860   1.384       .  S
C855        F861   1.382       .  S
C858        F862   1.384       .  S
C858        F863   1.385       .  S
C858        F864   1.383       .  S
C865        C866   1.400       .  A
C865        C870   1.404       .  A
C865        H872   1.084       .  S
C866        C867   1.416       .  A
C867        C868   1.409       .  A
C867        C874   1.519       .  S
C868        C869   1.407       .  A
C868        H873   1.083       .  S
C869        C870   1.424       .  A
C870        C871   1.522       .  S
C871        F875   1.385       .  S
C871        F876   1.384       .  S
C871        F877   1.383       .  S
C874        F878   1.383       .  S
C874        F879   1.384       .  S
C874        F880   1.384       .  S
C881        C882   1.401       .  A
C881        C886   1.405       .  A
C881        H888   1.083       .  S
C882        C883   1.416       .  A
C883        C884   1.410       .  A
C883        C890   1.517       .  S
C884        C885   1.403       .  A
C884        H889   1.083       .  S
C885        C886   1.414       .  A
C886        C887   1.517       .  S
C887        F891   1.384       .  S
C887        F892   1.383       .  S
C887        F893   1.382       .  S
C890        F894   1.383       .  S
C890        F895   1.383       .  S
C890        F896   1.385       .  S
C897        C898   1.397       .  A
C897        C902   1.402       .  A
C897        H904   1.084       .  S
C898        C899   1.416   1_554  A
C899        C900   1.408       .  A
C899        C906   1.519       .  S
C900        C901   1.404   1_556  A
C900        H905   1.083       .  S
C901        C902   1.420       .  A
C902        C903   1.518       .  S
C903        F907   1.385       .  S
C903        F908   1.382       .  S
C903        F909   1.382       .  S
C906        F910   1.383       .  S
C906        F911   1.382       .  S
C906        F912   1.385       .  S
C913        C914   1.401   1_554  A
C913        C918   1.406       .  A
C913        H920   1.083       .  S
C914        C915   1.417       .  A
C915        C916   1.406       .  A
C915        C922   1.519       .  S
C916        C917   1.400   1_556  A
C916        H921   1.084       .  S
C917        C918   1.415       .  A
C918        C919   1.517       .  S
C919        F923   1.385       .  S
C919        F924   1.383   1_554  S
C919        F925   1.382       .  S
C922        F926   1.382       .  S
C922        F927   1.383   1_556  S
C922        F928   1.385       .  S
C929        C930   1.406       .  A
C929        C934   1.402       .  A
C929        H936   1.083       .  S
C930        C931   1.422   1_556  A
C931        C932   1.408       .  A
C931        C938   1.518       .  S
C932        C933   1.403   1_554  A
C932        H937   1.082       .  S
C933        C934   1.418       .  A
C934        C935   1.522       .  S
C935        F939   1.383       .  S
C935        F940   1.384   1_655  S
C935        F941   1.385       .  S
C938        F942   1.381       .  S
C938        F943   1.382       .  S
C938        F944   1.385       .  S
C945        C946   1.406   1_556  A
C945        C950   1.411       .  A
C945        H952   1.083       .  S
C946        C947   1.418       .  A
C947        C948   1.401       .  A
C947        C954   1.523       .  S
C948        C949   1.407       .  A
C948        H953   1.083       .  S
C949        C950   1.418   1_554  A
C950        C951   1.516       .  S
C951        F955   1.385       .  S
C951        F956   1.383       .  S
C951        F957   1.379       .  S
C954        F958   1.383       .  S
C954        F959   1.385       .  S
C954        F960   1.383       .  S
