geometry optimzed in LAMMPS
_audit_creation_date              2020-11-30 
_audit_creation_method            'lammps2cif' 
_symmetry_space_group_name_H-M    'P1' 
_symmetry_Int_Tables_number       1 
_symmetry_cell_setting            triclinic 
loop_ 
_symmetry_equiv_pos_as_xyz 
  x,y,z 
_cell_length_a                    55.23676494966243 
_cell_length_b                    55.21003291138762 
_cell_length_c                    55.63722777333858 
_cell_angle_alpha                 90.34014459939914 
_cell_angle_beta                  89.81418458032569 
_cell_angle_gamma                 90.38197074168514 
loop_ 
_atom_site_label 
_atom_site_type_symbol 
_atom_site_fract_x 
_atom_site_fract_y 
_atom_site_fract_z 
_atom_site_charge 
O1          O  0.75756716  0.83915007  0.16325437    -0.56440
C2          C  0.73931824  0.88155250  0.20699703     0.76190
O3          O  0.74878129  0.91103738  0.12604695    -0.57590
C4          C  0.77247465  0.83961358  0.14596622     0.76160
C5          C  0.69478110  0.85504726  0.13943169     0.78560
Cd6        Cd  0.73942062  0.87768658  0.15566571     1.37460
O7          O  0.75585814  0.87089095  0.19536675    -0.56430
O8          O  0.71529021  0.85046980  0.13046342    -0.55240
C9          C  0.76368191  0.92126301  0.14019188     0.78520
O10         O  0.69399071  0.87292373  0.15385373    -0.57620
O11         O  0.72200192  0.89017066  0.19483580    -0.56070
O12         O  0.77215686  0.85807678  0.13258827    -0.56060
O13         O  0.76492353  0.91302174  0.16115492    -0.55230
O14         O  0.71157194  0.85332906  0.34495456    -0.56440
C15         C  0.74329658  0.88393210  0.31041151     0.76190
O16         O  0.72128883  0.90220607  0.39351120    -0.57590
C17         C  0.70452951  0.84404890  0.36449368     0.76160
C18         C  0.78638023  0.85400107  0.37654596     0.78560
Cd19       Cd  0.74260547  0.87905369  0.36185548     1.37460
O20         O  0.72394191  0.88239346  0.32246923    -0.56430
O21         O  0.76524030  0.84584440  0.37990184    -0.55240
C22         C  0.72175712  0.92205705  0.38244043     0.78520
O23         O  0.78777692  0.87515981  0.36788266    -0.57620
O24         O  0.76289306  0.88370001  0.32222712    -0.56070
O25         O  0.71577187  0.85039061  0.38333967    -0.56060
O26         O  0.73557535  0.92335430  0.36438095    -0.55230
O27         O  0.65009548  0.96859698  0.40483460    -0.56440
C28         C  0.60704153  0.01989662  0.41895711     0.76190
O29         O  0.61048696  0.98534171  0.33703520    -0.57590
C30         C  0.66318363  0.96414118  0.38669824     0.76160
C31         C  0.57903708  0.94683769  0.38563578     0.78560
Cd32       Cd  0.61524898  0.98455173  0.38156442     1.37460
O33         O  0.62705134  0.01840431  0.40802637    -0.56430
O34         O  0.60036331  0.94375072  0.39312065    -0.55240
C35         C  0.61203967  0.00810646  0.33531794     0.78520
O36         O  0.57434642  0.96712692  0.37646101    -0.57620
O37         O  0.59053595  0.00525398  0.41267546    -0.56070
O38         O  0.65435680  0.96903452  0.36638367    -0.56060
O39         O  0.61488057  0.01989674  0.35464715    -0.55230
O40         O  0.91302729  0.97293062  0.13159288    -0.56440
C41         C  0.87382291  0.00367426  0.18465849     0.76190
O42         O  0.87368644  0.99876712  0.09416813    -0.57590
C43         C  0.90878735  0.95068236  0.12800568     0.76160
C44         C  0.82206291  0.96335919  0.13247149     0.78560
Cd45       Cd  0.87011150  0.98470830  0.13606359     1.37460
O46         O  0.88771522  0.98713427  0.17732487    -0.56430
O47         O  0.83779418  0.95561351  0.14690174    -0.55240
C48         C  0.87589182  0.02098848  0.09933501     0.78520
O49         O  0.82820824  0.98101845  0.11945614    -0.57620
O50         O  0.85840285  0.01135519  0.16986654    -0.56070
O51         O  0.88681862  0.94414682  0.12731918    -0.56060
O52         O  0.87618173  0.02659138  0.12139697    -0.55230
O53         O  0.67823941  0.09719569  0.27352883    -0.56440
C54         C  0.63436620  0.13414125  0.28620733     0.76190
O55         O  0.64002863  0.09593049  0.20922017    -0.57590
C56         C  0.69017567  0.08714144  0.25681249     0.76160
C57         C  0.62023724  0.05113081  0.27784809     0.78560
Cd58       Cd  0.63898142  0.09373362  0.25413994     1.37470
O59         O  0.65218702  0.13213337  0.27201272    -0.56430
O60         O  0.64147851  0.05218008  0.26963694    -0.55240
C61         C  0.62395724  0.11204829  0.20764382     0.78520
O62         O  0.60624650  0.06818861  0.27227304    -0.57620
O63         O  0.61832419  0.11770965  0.28506777    -0.56070
O64         O  0.67837794  0.08036022  0.23839983    -0.56060
O65         O  0.61304134  0.11726863  0.22693697    -0.55230
O66         O  0.82878818  0.11175240  0.23258626    -0.56440
C67         C  0.79381794  0.08068147  0.26339444     0.76190
O68         O  0.87833817  0.06453916  0.24336219    -0.57590
C69         C  0.84845988  0.12187884  0.22656108     0.76160
C70         C  0.85813478  0.11360398  0.30674178     0.78560
Cd71       Cd  0.84542751  0.08663403  0.26366168     1.37470
O72         O  0.80637399  0.08107750  0.24437923    -0.56430
O73         O  0.86070731  0.12145999  0.28563581    -0.55240
C74         C  0.86775136  0.04424410  0.24372013     0.78520
O75         O  0.85153281  0.09162608  0.30853844    -0.57620
O76         O  0.80528934  0.08200368  0.28307134    -0.56070
O77         O  0.86726446  0.11571584  0.23791134    -0.56060
O78         O  0.84933324  0.04238381  0.25708974    -0.55230
O79         O  0.86881208  0.73822319  0.32318365    -0.56440
C80         C  0.85710343  0.69987490  0.37385752     0.76190
O81         O  0.92370526  0.73405772  0.38972013    -0.57590
C82         C  0.88741758  0.74483086  0.31154427     0.76160
C83         C  0.86217444  0.78332855  0.37812192     0.78560
Cd84       Cd  0.88737322  0.74002998  0.36261689     1.37470
O85         O  0.86435147  0.70448548  0.35279976    -0.56430
O86         O  0.85625302  0.76217430  0.38447500    -0.55240
C87         C  0.93166377  0.71697577  0.37655984     0.78520
O88         O  0.88203068  0.78526003  0.36669162    -0.57620
O89         O  0.86348649  0.71437743  0.39040300    -0.56070
O90         O  0.90584183  0.75098900  0.32373117    -0.56060
O91         O  0.92061206  0.71281061  0.35726774    -0.55230
O92         O  0.86812885  0.74327678  0.19682517    -0.56440
C93         C  0.84530043  0.76709087  0.14594791     0.76190
O94         O  0.92327404  0.73911443  0.13450169    -0.57590
C95         C  0.88640872  0.73633941  0.20840198     0.76160
C96         C  0.86245418  0.68982812  0.14076503     0.78560
Cd97       Cd  0.88361104  0.73508287  0.15694179     1.37460
O98         O  0.84535101  0.75360391  0.16422250    -0.56430
O99         O  0.86059990  0.70925021  0.12901482    -0.55240
C100        C  0.92639386  0.76080830  0.14162849     0.78520
O101        O  0.87767004  0.69010226  0.15777322    -0.57620
O102        O  0.86333579  0.76567429  0.13188529    -0.56070
O103        O  0.90376781  0.72770921  0.19615025    -0.56060
O104        O  0.91039038  0.76960301  0.15519388    -0.55230
O105        O  0.97780043  0.56939891  0.37871277    -0.56440
C106        C  0.01150973  0.60810640  0.32530357     0.76190
O107        O  0.98866571  0.65088054  0.39587074    -0.57590
C108        C  0.95584767  0.57521578  0.38122318     0.76160
C109        C  0.03213967  0.60359232  0.40794678     0.78560
Cd110      Cd  0.99334346  0.61135407  0.37413350     1.37460
O111        O  0.99705093  0.59231185  0.33342283    -0.56430
O112        O  0.03610190  0.60482936  0.38561519    -0.55240
C113        C  0.97420949  0.65976215  0.38080477     0.78520
O114        O  0.01036158  0.60522645  0.41475311    -0.57620
O115        O  0.01730537  0.62521742  0.33937285    -0.56070
O116        O  0.95112953  0.59756882  0.38110348    -0.56060
O117        O  0.96879695  0.64662378  0.36291286    -0.55230
O118        O  0.01064313  0.86333476  0.09193664    -0.56440
C119        C  0.97348429  0.81526378  0.13322373     0.76190
O120        O  0.00504442  0.88192978  0.17432071    -0.57590
C121        C  0.03291094  0.86607108  0.09635601     0.76160
C122        C  0.96189594  0.89988530  0.12756759     0.78560
Cd123      Cd  0.99720207  0.86215914  0.13447151     1.37460
O124        O  0.99059585  0.82009695  0.11886977    -0.56430
O125        O  0.95621156  0.87771529  0.12651371    -0.55240
C126        C  0.01809245  0.86505180  0.18218728     0.78520
O127        O  0.98395934  0.90490734  0.13113661    -0.57620
O128        O  0.96760363  0.83167861  0.14799890    -0.56070
O129        O  0.03884099  0.86767910  0.11822500    -0.56060
O130        O  0.02156393  0.84724988  0.16825851    -0.55230
O131        O  0.12558393  0.82659964  0.22538469    -0.56440
C132        C  0.10310583  0.78532537  0.26118857     0.76190
O133        O  0.10714923  0.83460718  0.30565007    -0.57590
C134        C  0.13484491  0.84712762  0.22137837     0.76160
C135        C  0.05973695  0.85477955  0.23934057     0.78560
Cd136      Cd  0.10344182  0.83700073  0.26087661     1.37470
O137        O  0.12219904  0.79739502  0.25684477    -0.56430
O138        O  0.06646585  0.83312229  0.23791972    -0.55240
C139        C  0.12546423  0.84852751  0.30670570     0.78520
O140        O  0.07141506  0.86851321  0.25354214    -0.57620
O141        O  0.08446239  0.79724255  0.26726166    -0.56070
O142        O  0.13024997  0.86377204  0.23640853    -0.56060
O143        O  0.13122278  0.85911073  0.28742243    -0.55230
O144        O  0.11921401  0.63967827  0.28288203    -0.56440
C145        C  0.10081232  0.68199074  0.24616913     0.76190
O146        O  0.10196818  0.62798644  0.20085974    -0.57590
C147        C  0.12738621  0.61868033  0.28640530     0.76160
C148        C  0.05261426  0.61458860  0.26677280     0.78560
Cd149      Cd  0.09786877  0.63027570  0.24616867     1.37460
O150        O  0.11846453  0.66900922  0.25253022    -0.56430
O151        O  0.05744669  0.63652157  0.26287030    -0.55240
C152        C  0.12143658  0.61595825  0.20155829     0.78520
O153        O  0.06684181  0.59911740  0.25776145    -0.57620
O154        O  0.08231234  0.67097599  0.23805613    -0.56070
O155        O  0.12153004  0.60246426  0.27131267    -0.56060
O156        O  0.12793155  0.60903402  0.22208924    -0.55230
O157        O  0.48991333  0.58574308  0.15662604    -0.56440
C158        C  0.53334426  0.57105512  0.11565593     0.76190
O159        O  0.48020972  0.60226927  0.07547513    -0.57590
C160        C  0.47403150  0.60025470  0.16430331     0.76160
C161        C  0.51422536  0.65582836  0.11422323     0.78560
Cd162      Cd  0.49531448  0.60674232  0.11737704     1.37470
O163        O  0.51171111  0.56563592  0.11044424    -0.56430
O164        O  0.50745745  0.64661074  0.13385019    -0.55240
C165        C  0.45809759  0.60057436  0.08113267     0.78520
O166        O  0.51242825  0.64258857  0.09570650    -0.57620
O167        O  0.53775305  0.59300171  0.12065732    -0.56070
O168        O  0.46804395  0.61729462  0.15050338    -0.56060
O169        O  0.45312697  0.60099844  0.10328717    -0.55230
O170        O  0.39821782  0.79349182  0.26574425    -0.56440
C171        C  0.35739806  0.83399313  0.28706288     0.76190
O172        O  0.41385027  0.86613360  0.26897801    -0.57590
C173        C  0.39852926  0.78193357  0.24607122     0.76160
C174        C  0.36303516  0.84875860  0.20736488     0.78560
Cd175      Cd  0.39141228  0.83339121  0.24847051     1.37470
O176        O  0.36489454  0.81455537  0.27758896    -0.56430
O177        O  0.35642690  0.85100789  0.22897809    -0.55240
C178        C  0.43395878  0.85548436  0.26858216     0.78520
O179        O  0.38440456  0.84108796  0.20407509    -0.57620
O180        O  0.36549661  0.85359372  0.27839640    -0.56070
O181        O  0.39645668  0.79435477  0.22708258    -0.56060
O182        O  0.43571818  0.83723668  0.25492150    -0.55230
O183        O  0.37957777  0.66767729  0.23204408    -0.56440
C184        C  0.35226209  0.62034170  0.20630867     0.76190
O185        O  0.42231043  0.59697932  0.23794434    -0.57590
C186        C  0.39376890  0.67782681  0.24678550     0.76160
C187        C  0.36201435  0.60990850  0.28575750     0.78560
Cd188      Cd  0.38747980  0.62634620  0.24303454     1.37460
O189        O  0.35828214  0.64067306  0.21503094    -0.56430
O190        O  0.35686902  0.60272986  0.26477631    -0.55240
C191        C  0.43045039  0.60820901  0.21982084     0.78520
O192        O  0.38049246  0.62354508  0.28757568    -0.57620
O193        O  0.36206253  0.60178515  0.21526691    -0.56070
O194        O  0.40473128  0.66409324  0.26134267    -0.56060
O195        O  0.41990053  0.62739420  0.21418364    -0.55230
O196        O  0.47890366  0.85981210  0.41976539    -0.56440
C197        C  0.50947385  0.80807773  0.38126577     0.76190
O198        O  0.49136462  0.87295528  0.33523174    -0.57590
C199        C  0.45705540  0.86496027  0.41569437     0.76160
C200        C  0.52730889  0.89395381  0.38471354     0.78560
Cd201      Cd  0.49119760  0.85690702  0.37717496     1.37460
O202        O  0.48926502  0.81369260  0.39027368    -0.56430
O203        O  0.53262107  0.87172795  0.38521469    -0.55240
C204        C  0.47316752  0.86090488  0.32834528     0.78520
O205        O  0.50530609  0.89919314  0.38152336    -0.57620
O206        O  0.52085251  0.82457319  0.37027312    -0.56070
O207        O  0.45095722  0.86723440  0.39394087    -0.56060
O208        O  0.46336043  0.84717725  0.34368628    -0.55230
O209        O  0.61650978  0.77029407  0.34170511    -0.56440
C210        C  0.58294264  0.73584786  0.30317530     0.76190
O211        O  0.60740765  0.69458672  0.37304108    -0.57590
C212        C  0.62866609  0.77267530  0.36078627     0.76160
C213        C  0.55191339  0.75097220  0.37616318     0.78560
Cd214      Cd  0.59489423  0.73416422  0.35313292     1.37460
O215        O  0.59126351  0.75397795  0.31451149    -0.56430
O216        O  0.57251575  0.75459241  0.38529417    -0.55240
C217        C  0.62530644  0.69205599  0.35886616     0.78520
O218        O  0.55054126  0.73580740  0.35909796    -0.57620
O219        O  0.57913100  0.71676302  0.31527159    -0.56070
O220        O  0.62485605  0.75720696  0.37712401    -0.56060
O221        O  0.62756914  0.70791610  0.34280311    -0.55230
O222        O  0.58779701  0.71897823  0.18885416    -0.56440
C223        C  0.62858525  0.69923236  0.14889795     0.76190
O224        O  0.57352675  0.71839124  0.11444940    -0.57590
C225        C  0.58313063  0.73833168  0.20015137     0.76160
C226        C  0.62140067  0.78070341  0.13764787     0.78560
Cd227      Cd  0.59376024  0.73719277  0.14962442     1.37470
O228        O  0.61951307  0.70725470  0.16824374    -0.56430
O229        O  0.62936009  0.75944992  0.13534024    -0.55240
C230        C  0.55322981  0.71602019  0.12461970     0.78520
O231        O  0.59943230  0.78242596  0.14408882    -0.57620
O232        O  0.62169123  0.70905215  0.12961130    -0.56070
O233        O  0.58277940  0.75763309  0.18789502    -0.56060
O234        O  0.55029787  0.72725548  0.14420720    -0.55230
O235        O  0.71058800  0.61988617  0.17228920    -0.56440
C236        C  0.74464467  0.58807865  0.20739597     0.76190
O237        O  0.72382546  0.56865422  0.12344447    -0.57590
C238        C  0.70312127  0.62732720  0.15219064     0.76160
C239        C  0.78565678  0.61939245  0.14190464     0.78560
Cd240      Cd  0.74178583  0.59359384  0.15626733     1.37470
O241        O  0.72495832  0.59233407  0.19673730    -0.56430
O242        O  0.76467453  0.62805727  0.13988158    -0.55240
C243        C  0.72127207  0.54992703  0.13611133     0.78520
O244        O  0.78671745  0.59766437  0.14903612    -0.57620
O245        O  0.76339033  0.58625931  0.19431654    -0.56070
O246        O  0.71393072  0.61940365  0.13366954    -0.56060
O247        O  0.73173448  0.54996064  0.15620510    -0.55230
O248        O  0.76431704  0.59693014  0.32158200    -0.56440
C249        C  0.78613180  0.62543608  0.37372475     0.76190
O250        O  0.70377700  0.60278712  0.37636912    -0.57590
C251        C  0.74665631  0.58715394  0.31071117     0.76160
C252        C  0.76451032  0.55072419  0.38208744     0.78560
Cd253      Cd  0.74671119  0.59435204  0.36159345     1.37460
O254        O  0.78545365  0.61270447  0.35478564    -0.56430
O255        O  0.75580772  0.55107432  0.36114663    -0.55240
C256        C  0.70333573  0.62302278  0.36556713     0.78520
O257        O  0.76060340  0.56896579  0.39537345    -0.57620
O258        O  0.76814712  0.62380149  0.38783055    -0.56070
O259        O  0.72906715  0.57989581  0.32357445    -0.56060
O260        O  0.72259668  0.62929880  0.35500892    -0.55230
O261        O  0.85224585  0.44943520  0.40381651    -0.56440
C262        C  0.82198971  0.50771676  0.38732829     0.76190
O263        O  0.89205846  0.51806137  0.36397176    -0.57590
C264        C  0.87146382  0.44559777  0.41536726     0.76160
C265        C  0.87463450  0.45775476  0.33579352     0.78560
Cd266      Cd  0.86816767  0.48394560  0.38055008     1.37460
O267        O  0.83498594  0.50224762  0.40511322    -0.56430
O268        O  0.85417136  0.46502008  0.34284083    -0.55240
C269        C  0.90313459  0.52315347  0.38318429     0.78520
O270        O  0.89245170  0.46241371  0.34927225    -0.57620
O271        O  0.83035390  0.50274687  0.36674353    -0.56070
O272        O  0.88947829  0.45895136  0.41058692    -0.56060
O273        O  0.89775175  0.51074563  0.40145696    -0.55230
O274        O  0.58835312  0.51138325  0.14502752    -0.56440
C275        C  0.61360920  0.45631793  0.17980018     0.76190
O276        O  0.63306100  0.44602298  0.10888690    -0.57590
C277        C  0.58425368  0.51861546  0.12394200     0.76160
C278        C  0.66418043  0.50524751  0.12946584     0.78560
Cd279      Cd  0.61818622  0.48011660  0.13354016     1.37470
O280        O  0.59510817  0.46159235  0.16766451    -0.56430
O281        O  0.65010756  0.50840530  0.14715262    -0.55240
C282        C  0.61289328  0.44056394  0.09964600     0.78520
O283        O  0.65712906  0.49072169  0.11328085    -0.57620
O284        O  0.63387468  0.46197294  0.17082853    -0.56070
O285        O  0.59588134  0.50842781  0.10715879    -0.56060
O286        O  0.59482565  0.45279645  0.10639054    -0.55230
O287        O  0.65673632  0.33417899  0.24237296    -0.56440
C288        C  0.69154661  0.38256415  0.26189423     0.76190
O289        O  0.62027841  0.41139201  0.25736829    -0.57590
C290        C  0.63710190  0.32803927  0.23228178     0.76160
C291        C  0.62642093  0.35090718  0.30763165     0.78560
Cd292      Cd  0.64088687  0.37059223  0.26132008     1.37470
O293        O  0.68168649  0.37132567  0.24463387    -0.56430
O294        O  0.64541251  0.36346482  0.30476482    -0.55240
C295        C  0.62089224  0.41050916  0.23459237     0.78520
O296        O  0.61241287  0.34958283  0.28967317    -0.57620
O297        O  0.67782728  0.38900597  0.27902528    -0.56070
O298        O  0.61864019  0.34065658  0.23719208    -0.56060
O299        O  0.62912752  0.39151759  0.22523596    -0.55230
O300        O  0.82808425  0.34430789  0.29281466    -0.56440
C301        C  0.79502476  0.38251985  0.26230555     0.76190
O302        O  0.85374914  0.41284598  0.26486360    -0.57590
C303        C  0.84645593  0.33141071  0.29652898     0.76160
C304        C  0.85254340  0.34470584  0.21521152     0.78560
Cd305      Cd  0.84484803  0.36879330  0.26121250     1.37470
O306        O  0.80519648  0.37256192  0.28000800    -0.56430
O307        O  0.83207344  0.34843205  0.22453980    -0.55240
C308        C  0.86884053  0.41029681  0.28166716     0.78520
O309        O  0.87054907  0.35316084  0.22666111    -0.57620
O310        O  0.80828776  0.38730114  0.24425443    -0.56070
O311        O  0.86456700  0.33502737  0.28297126    -0.56060
O312        O  0.87549586  0.38902799  0.28618259    -0.55230
O313        O  0.85961666  0.13172288  0.78108246    -0.56440
C314        C  0.88037459  0.16923573  0.74395653     0.76190
O315        O  0.90718015  0.08671761  0.76497615    -0.57590
C316        C  0.84924391  0.11200768  0.78638485     0.76160
C317        C  0.86041057  0.10231116  0.70023431     0.78560
Cd318      Cd  0.88086567  0.11747577  0.74594236     1.37460
O319        O  0.86122836  0.15697811  0.74753042    -0.56430
O320        O  0.85371754  0.09337509  0.72000993    -0.55240
C321        C  0.92464895  0.10124790  0.76817100     0.78520
O322        O  0.87881912  0.11605151  0.70103648    -0.57620
O323        O  0.89956322  0.15741643  0.73987169    -0.56070
O324        O  0.85336356  0.09410535  0.77269267    -0.56060
O325        O  0.92350603  0.12138473  0.75771999    -0.55230
O326        O  0.86082559  0.28497551  0.74982940    -0.56440
C327        C  0.83839304  0.33733975  0.72594499     0.76190
O328        O  0.87630245  0.32276319  0.80092091    -0.57590
C329        C  0.87975677  0.27316937  0.75441099     0.76160
C330        C  0.91955466  0.34071020  0.72883061     0.78560
Cd331      Cd  0.87798765  0.32507928  0.75621750     1.37460
O332        O  0.83782021  0.31946339  0.74002354    -0.56430
O333        O  0.90424600  0.32547480  0.72132967    -0.55240
C334        C  0.86300197  0.34119046  0.80355931     0.78520
O335        O  0.91659886  0.34884197  0.75001395    -0.57620
O336        O  0.85715350  0.35062049  0.72662148    -0.56070
O337        O  0.89815453  0.28539248  0.76090987    -0.56060
O338        O  0.85982337  0.35385727  0.78498566    -0.55230
O339        O  0.96658561  0.35584450  0.58840060    -0.56440
C340        C  0.00763028  0.31347080  0.61977934     0.76190
O341        O  0.00569203  0.40157466  0.63321717    -0.57590
C342        C  0.95137765  0.37253564  0.59143790     0.76160
C343        C  0.96391731  0.35568080  0.67339755     0.78560
Cd344      Cd  0.98720764  0.36095180  0.62693346     1.37460
O345        O  0.99187049  0.32156725  0.60560154    -0.56430
O346        O  0.95399542  0.34881922  0.65408416    -0.55240
C347        C  0.02468027  0.39747645  0.62122047     0.78520
O348        O  0.98476311  0.36505763  0.67163998    -0.57620
O349        O  0.01369355  0.32695430  0.63723423    -0.56070
O350        O  0.95286618  0.38473188  0.61068940    -0.56060
O351        O  0.02634108  0.37686676  0.61146015    -0.55230
O352        O  0.00121205  0.06611187  0.87867587    -0.56440
C353        C  0.96611848  0.10048046  0.82679579     0.76190
O354        O  0.97383884  0.10485100  0.91657696    -0.57590
C355        C  0.02315910  0.07177510  0.88191209     0.76160
C356        C  0.00457787  0.15753958  0.87468626     0.78560
Cd357      Cd  0.98660962  0.10796087  0.87410021     1.37470
O358        O  0.98493117  0.08940649  0.83316968    -0.56430
O359        O  0.01197359  0.14193531  0.85973410    -0.55240
C360        C  0.95173257  0.10089197  0.91212920     0.78520
O361        O  0.98876455  0.15059471  0.88959767    -0.57620
O362        O  0.95692317  0.11490128  0.84194317    -0.56070
O363        O  0.02832688  0.09411561  0.88237281    -0.56060
O364        O  0.94569611  0.09962123  0.89026623    -0.55230
O365        O  0.08449472  0.25767528  0.68226429    -0.56440
C366        C  0.12900008  0.27552781  0.64305054     0.76190
O367        O  0.09905588  0.19282747  0.63820680    -0.57590
C368        C  0.08380575  0.23852008  0.69458276     0.76160
C369        C  0.05091862  0.25649678  0.62168010     0.78560
Cd370      Cd  0.09350835  0.23788540  0.64394063     1.37470
O371        O  0.12155025  0.26615543  0.66242797    -0.56430
O372        O  0.04927194  0.24157008  0.63870325    -0.55240
C373        C  0.12061119  0.19487530  0.63055964     0.78520
O374        O  0.07147187  0.25915582  0.61209433    -0.57620
O375        O  0.11998033  0.26733799  0.62371408    -0.56070
O376        O  0.08707191  0.21878203  0.68331003    -0.56060
O377        O  0.12804538  0.21622228  0.62706708    -0.55230
O378        O  0.09415067  0.22932175  0.80901690    -0.56440
C379        C  0.12698273  0.21573931  0.85900972     0.76190
O380        O  0.09068671  0.28960164  0.84645815    -0.57590
C381        C  0.08101496  0.24396527  0.79764590     0.76160
C382        C  0.04427701  0.21706160  0.86438814     0.78560
Cd383      Cd  0.08585986  0.24474891  0.84876084     1.37470
O384        O  0.12582045  0.22893242  0.84054735    -0.56430
O385        O  0.05787097  0.21119525  0.84720841    -0.55240
C386        C  0.10470151  0.29130602  0.86438807     0.78520
O387        O  0.04857510  0.23726707  0.87456377    -0.57620
O388        O  0.10920458  0.21655348  0.87340534    -0.56070
O389        O  0.06999695  0.25989566  0.80998295    -0.56060
O390        O  0.10688497  0.27238297  0.87688986    -0.55230
O391        O  0.70876439  0.31635656  0.87819795    -0.56440
C392        C  0.74635689  0.27786880  0.89842560     0.76190
O393        O  0.79084957  0.32885906  0.89494938    -0.57590
C394        C  0.70598086  0.33498328  0.86546016     0.76160
C395        C  0.72305448  0.34993537  0.94056770     0.78560
Cd396      Cd  0.74547251  0.32974883  0.89821916     1.37460
O397        O  0.74246620  0.28982599  0.87946985    -0.56430
O398        O  0.73198231  0.32898641  0.94051906    -0.55240
C399        C  0.79201716  0.34373572  0.87775527     0.78520
O400        O  0.72775269  0.36307439  0.92264960    -0.57620
O401        O  0.75123538  0.29000689  0.91725066    -0.56070
O402        O  0.72154348  0.35170620  0.86797332    -0.56060
O403        O  0.77242621  0.35393855  0.87233561    -0.55230
O404        O  0.74120653  0.16197623  0.87877869    -0.56440
C405        C  0.77849185  0.11402545  0.86176740     0.76190
O406        O  0.74786986  0.09463840  0.93246591    -0.57590
C407        C  0.73734636  0.17367748  0.89802306     0.76160
C408        C  0.69549249  0.10571770  0.87694324     0.78560
Cd409      Cd  0.74140521  0.12203157  0.89665958     1.37460
O410        O  0.77270610  0.13469430  0.86959143    -0.56430
O411        O  0.71544490  0.09601012  0.87145196    -0.55240
C412        C  0.76676282  0.10609220  0.93889709     0.78520
O413        O  0.69618250  0.12120333  0.89385176    -0.57620
O414        O  0.76649336  0.09615077  0.86972724    -0.56070
O415        O  0.73339985  0.16127446  0.91679479    -0.56060
O416        O  0.77228349  0.12463977  0.92706918    -0.55230
O417        O  0.63324357  0.38516422  0.03693759    -0.56440
C418        C  0.66473300  0.35904618  0.98268115     0.76190
O419        O  0.59454701  0.32056779  0.02056678    -0.57590
C420        C  0.61295814  0.38973765  0.04636457     0.76160
C421        C  0.58442073  0.36533998  0.96750561     0.78560
Cd422      Cd  0.61802958  0.35657762  0.00628634     1.37460
O423        O  0.65527623  0.37777062  0.99177264    -0.56430
O424        O  0.59241038  0.38260329  0.98027020    -0.55240
C425        C  0.61256929  0.31030947  0.02990427     0.78520
O426        O  0.59218641  0.34446195  0.97219651    -0.57620
O427        O  0.65265897  0.33959182  0.98406649    -0.56070
O428        O  0.59473724  0.37895566  0.03759274    -0.56060
O429        O  0.63263652  0.32131897  0.02857227    -0.55230
O430        O  0.85394868  0.07707068  0.03804688    -0.56440
C431        C  0.82255120  0.09865389  0.98335845     0.76190
O432        O  0.89339861  0.14041519  0.01986876    -0.57590
C433        C  0.87445433  0.07098084  0.04580085     0.76160
C434        C  0.90218757  0.09989148  0.96648738     0.78560
Cd435      Cd  0.86907735  0.10458561  0.00646416     1.37470
O436        O  0.83676210  0.08093256  0.98545274    -0.56430
O437        O  0.89895660  0.08272686  0.98110361    -0.55240
C438        C  0.87571262  0.15128791  0.02937206     0.78520
O439        O  0.88987508  0.11880105  0.96987898    -0.57620
O440        O  0.82968409  0.11874701  0.99178547    -0.56070
O441        O  0.89269043  0.08042996  0.03571542    -0.56060
O442        O  0.85539995  0.14070198  0.02850850    -0.55230
O443        O  0.82940582  0.19660880  0.13975718    -0.56440
C444        C  0.79547776  0.22559519  0.10145869     0.76190
O445        O  0.87110492  0.26196360  0.13213424    -0.57590
C446        C  0.84797637  0.19409037  0.15265685     0.76160
C447        C  0.86998827  0.20752888  0.07374663     0.78560
Cd448      Cd  0.84548641  0.22821056  0.11442709     1.37460
O449        O  0.80618061  0.20813637  0.11143064    -0.56430
O450        O  0.87561487  0.20243865  0.09502095    -0.55240
C451        C  0.85301132  0.27416547  0.13908355     0.78520
O452        O  0.85568705  0.22504582  0.07083805    -0.57620
O453        O  0.80831030  0.24399810  0.09624149    -0.56070
O454        O  0.86570234  0.20806390  0.14833685    -0.56060
O455        O  0.83257058  0.26609775  0.13279931    -0.55230
O456        O  0.65633186  0.24589661  0.15068385    -0.56440
C457        C  0.69191402  0.22520590  0.10314089     0.76190
O458        O  0.64101136  0.18312713  0.11719236    -0.57590
C459        C  0.63782432  0.25849831  0.15516677     0.76160
C460        C  0.62193696  0.25374869  0.07269331     0.78560
Cd461      Cd  0.64126755  0.22813645  0.11338738     1.37460
O462        O  0.68231251  0.24339932  0.11315707    -0.56430
O463        O  0.64280621  0.25706888  0.08100844    -0.55240
C464        C  0.62495982  0.18265809  0.13351897     0.78520
O465        O  0.60948283  0.23679802  0.08186413    -0.57620
O466        O  0.67795638  0.20766502  0.09768291    -0.56070
O467        O  0.62055939  0.25686100  0.14033941    -0.56060
O468        O  0.61460132  0.20253592  0.13802229    -0.55230
O469        O  0.60543799  0.06498574  0.49397950    -0.56440
C470        C  0.65891187  0.10308020  0.52688345     0.76190
O471        O  0.58861000  0.14584440  0.50112344    -0.57590
C472        C  0.60369417  0.07056749  0.47206964     0.76160
C473        C  0.57600694  0.10078001  0.54755867     0.78560
Cd474      Cd  0.61022168  0.10703692  0.50873089     1.37470
O475        O  0.64975380  0.08635291  0.51419853    -0.56430
O476        O  0.59832328  0.10387635  0.55145153    -0.55240
C477        C  0.60509558  0.15460275  0.48791978     0.78520
O478        O  0.56936828  0.10005845  0.52585257    -0.57620
O479        O  0.64590125  0.12140876  0.53092198    -0.56070
O480        O  0.60405991  0.09285034  0.46707497    -0.56060
O481        O  0.62364405  0.14173799  0.48458660    -0.55230
O482        O  0.79682365  0.24164495  0.41353929    -0.56440
C483        C  0.84320622  0.26156563  0.37260763     0.76190
O484        O  0.86699705  0.23123081  0.44497181    -0.57590
C485        C  0.78695111  0.22256430  0.42121438     0.76160
C486        C  0.85267623  0.18573352  0.38142650     0.78560
Cd487      Cd  0.83756984  0.22711954  0.40990114     1.37470
O488        O  0.82271825  0.25394522  0.37964610    -0.56430
O489        O  0.85181073  0.20722204  0.37391210    -0.55240
C490        C  0.85903737  0.25215355  0.45011538     0.78520
O491        O  0.84760443  0.18269816  0.40351615    -0.57620
O492        O  0.86172838  0.25279739  0.38270320    -0.56070
O493        O  0.80058133  0.20439798  0.42387955    -0.56060
O494        O  0.84212033  0.25999437  0.43744351    -0.55230
O495        O  0.67261953  0.21172957  0.40671693    -0.56440
C496        C  0.63252468  0.20545021  0.36159423     0.76190
O497        O  0.62066327  0.23138269  0.44702039    -0.57590
C498        C  0.68407003  0.22764575  0.41861129     0.76160
C499        C  0.62353817  0.28093652  0.38311724     0.78560
Cd500      Cd  0.63473243  0.23426593  0.40419712     1.37470
O501        O  0.65182276  0.21619034  0.36791915    -0.56430
O502        O  0.64306780  0.27705514  0.39415790    -0.55240
C503        C  0.61102680  0.21074241  0.44388814     0.78520
O504        O  0.60764813  0.26438062  0.38451479    -0.57620
O505        O  0.61401350  0.20879156  0.37465022    -0.56070
O506        O  0.67245714  0.24653272  0.42442761    -0.56060
O507        O  0.60967334  0.20304530  0.42259590    -0.55230
O508        O  0.87990418  0.31801021  0.50755505    -0.56440
C509        C  0.89920915  0.37243803  0.54077400     0.76190
O510        O  0.86185964  0.40096138  0.48872535    -0.57590
C511        C  0.86809214  0.31021475  0.48969435     0.76160
C512        C  0.81440886  0.36123313  0.52556226     0.78560
Cd513      Cd  0.86287309  0.35987872  0.50585008     1.37460
O514        O  0.90476117  0.36435658  0.52021176    -0.56430
O515        O  0.83149624  0.35012329  0.53561472    -0.55240
C516        C  0.86967866  0.39493191  0.46820077     0.78520
O517        O  0.81926849  0.37170141  0.50599254    -0.57620
O518        O  0.87699324  0.37565907  0.54507749    -0.56070
O519        O  0.85398082  0.32496337  0.47969897    -0.56060
O520        O  0.87488541  0.37289876  0.46502775    -0.55230
O521        O  0.75451287  0.29325582  0.61415460    -0.56440
C522        C  0.76749405  0.34013773  0.65148863     0.76190
O523        O  0.74386137  0.36446300  0.58000119    -0.57590
C524        C  0.73692283  0.28139767  0.60540695     0.76160
C525        C  0.69040722  0.34736014  0.63250431     0.78560
Cd526      Cd  0.73585736  0.33274954  0.61153033     1.37460
O527        O  0.75158454  0.32360783  0.65088747    -0.56430
O528        O  0.70977064  0.35933923  0.63544734    -0.55240
C529        C  0.75770017  0.35068990  0.56803495     0.78520
O530        O  0.69105871  0.33068482  0.61675989    -0.57620
O531        O  0.76879962  0.35383934  0.63336433    -0.56070
O532        O  0.71835549  0.29337134  0.59945190    -0.56060
O533        O  0.75916251  0.32908543  0.57482559    -0.55230
O534        O  0.72753564  0.13702872  0.65075446    -0.56440
C535        C  0.74168636  0.17758622  0.60455354     0.76190
O536        O  0.78673453  0.12676038  0.61572453    -0.57590
C537        C  0.71423225  0.11846555  0.65339611     0.76160
C538        C  0.71558078  0.10918096  0.56970061     0.78560
Cd539      Cd  0.74214987  0.12607336  0.61099939     1.37460
O540        O  0.72463029  0.16607439  0.61451912    -0.56430
O541        O  0.70627011  0.11938176  0.58767701    -0.55240
C542        C  0.78769015  0.10793655  0.62857611     0.78520
O543        O  0.73822809  0.10564373  0.57025150    -0.57620
O544        O  0.75956334  0.16524818  0.59727119    -0.56070
O545        O  0.71493877  0.10263491  0.63683495    -0.56060
O546        O  0.76818738  0.09593925  0.63061044    -0.55230
O547        O  0.64060076  0.13438817  0.74259516    -0.56440
C548        C  0.59803282  0.17298941  0.75772058     0.76190
O549        O  0.57770591  0.09130833  0.73746032    -0.57590
C550        C  0.64240018  0.11687633  0.72795055     0.76160
C551        C  0.62168301  0.10432597  0.80556508     0.78560
Cd552      Cd  0.60227667  0.12124834  0.76018911     1.37470
O553        O  0.60032439  0.16005856  0.73901537    -0.56430
O554        O  0.62667662  0.09434727  0.78569101    -0.55240
C555        C  0.55848866  0.10351680  0.73793023     0.78520
O556        O  0.60495366  0.11986454  0.80509836    -0.57620
O557        O  0.59727941  0.16191345  0.77759760    -0.56070
O558        O  0.62579858  0.10099586  0.72863101    -0.56060
O559        O  0.55817987  0.12172033  0.75176624    -0.55230
O560        O  0.60789935  0.28935039  0.76931823    -0.56440
C561        C  0.63305137  0.33476019  0.79223945     0.76190
O562        O  0.60202418  0.33157341  0.70914556    -0.57590
C563        C  0.59771369  0.27724001  0.75284004     0.76160
C564        C  0.55586851  0.34919546  0.77557259     0.78560
Cd565      Cd  0.59887369  0.32929754  0.75407476     1.37460
O566        O  0.62092777  0.31559388  0.78869522    -0.56430
O567        O  0.55577548  0.32841073  0.76610711    -0.55240
C568        C  0.62148966  0.34380549  0.70907762     0.78520
O569        O  0.57425223  0.36227911  0.77178270    -0.57620
O570        O  0.62966868  0.35195504  0.77766876    -0.56070
O571        O  0.58826475  0.28922769  0.73593670    -0.56060
O572        O  0.62922800  0.35048820  0.72940384    -0.55230
O573        O  0.49885010  0.37485055  0.83979787    -0.56440
C574        C  0.45653770  0.39611694  0.88615185     0.76190
O575        O  0.47472578  0.32627345  0.90485069    -0.57590
C576        C  0.51478019  0.35959777  0.83399790     0.76160
C577        C  0.53254414  0.36689125  0.91597280     0.78560
Cd578      Cd  0.49366215  0.35984677  0.88163700     1.37470
O579        O  0.47509088  0.39932743  0.87319159    -0.56430
O580        O  0.51961853  0.38445787  0.90950476    -0.55240
C581        C  0.46688760  0.31505136  0.88657549     0.78520
O582        O  0.52784244  0.34659218  0.90656381    -0.57620
O583        O  0.45529644  0.37655739  0.89781729    -0.56070
O584        O  0.52105568  0.34475666  0.84996987    -0.56060
O585        O  0.47131985  0.32435423  0.86632346    -0.55230
O586        O  0.47848833  0.14554622  0.61380249    -0.56440
C587        C  0.52615018  0.10138321  0.60154447     0.76190
O588        O  0.50814729  0.08335517  0.66809030    -0.57590
C589        C  0.46688852  0.15546814  0.63073972     0.76160
C590        C  0.44726036  0.07534376  0.63022622     0.78560
Cd591      Cd  0.48803143  0.10797478  0.63644104     1.37460
O592        O  0.52435346  0.12057675  0.61386748    -0.56430
O593        O  0.45842764  0.08407170  0.61240017    -0.55240
C594        C  0.51288172  0.10109837  0.68177750     0.78520
O595        O  0.45437839  0.08196583  0.65079686    -0.57620
O596        O  0.51097564  0.08470660  0.60578712    -0.56070
O597        O  0.46469858  0.14353420  0.64993914    -0.56060
O598        O  0.50632672  0.12171638  0.67468695    -0.55230
O599        O  0.38298861  0.21937383  0.69496566    -0.56440
C600        C  0.34909432  0.19858471  0.65074377     0.76190
O601        O  0.37946493  0.28185015  0.64728166    -0.57590
C602        C  0.38857438  0.23846765  0.70634794     0.76160
C603        C  0.42640905  0.21507028  0.63510204     0.78560
Cd604      Cd  0.38365865  0.23681598  0.65499376     1.37460
O605        O  0.35661626  0.20630615  0.67084501    -0.56430
O606        O  0.42727286  0.22710252  0.65441887    -0.55240
C607        C  0.35785872  0.27992916  0.63983240     0.78520
O608        O  0.40737830  0.21682877  0.62280312    -0.57620
O609        O  0.35742488  0.20890120  0.63216951    -0.56070
O610        O  0.39216548  0.25733708  0.69388801    -0.56060
O611        O  0.34957980  0.25864930  0.63815825    -0.55230
O612        O  0.37644868  0.25625778  0.82048503    -0.56440
C613        C  0.33329550  0.26735141  0.86571949     0.76190
O614        O  0.36875960  0.19398424  0.86012896    -0.57590
C615        C  0.38494594  0.23803663  0.80964057     0.76160
C616        C  0.41722940  0.26291172  0.87989703     0.78560
Cd617      Cd  0.37535805  0.23841818  0.86050902     1.37460
O618        O  0.33719725  0.25468308  0.84707311    -0.56430
O619        O  0.39944869  0.27345553  0.87074007    -0.55240
C620        C  0.35326969  0.19384234  0.87695860     0.78520
O621        O  0.41589774  0.24004747  0.88157215    -0.57620
O622        O  0.34869241  0.26603093  0.88248386    -0.56070
O623        O  0.38953290  0.21972248  0.82240775    -0.56060
O624        O  0.35070804  0.21357319  0.88835021    -0.55230
O625        O  0.09805922  0.63875378  0.51478388    -0.56440
C626        C  0.08601771  0.60159292  0.45778434     0.76190
O627        O  0.15327528  0.57806869  0.47890792    -0.57590
C628        C  0.11653118  0.65056995  0.52145311     0.76160
C629        C  0.11499623  0.57112346  0.53532136     0.78560
Cd630      Cd  0.12110228  0.60468347  0.49616106     1.37460
O631        O  0.09831470  0.62060748  0.46154777    -0.56430
O632        O  0.09757599  0.57638657  0.52171118    -0.55240
C633        C  0.16659115  0.59525001  0.47167389     0.78520
O634        O  0.13504091  0.58143956  0.53118612    -0.57620
O635        O  0.09026513  0.58369493  0.47112613    -0.56070
O636        O  0.13686667  0.64151912  0.51637224    -0.56060
O637        O  0.15895509  0.61646600  0.47540193    -0.55230
O638        O  0.27804737  0.80866833  0.36834779    -0.56440
C639        C  0.24065715  0.77091447  0.39293878     0.76190
O640        O  0.25333746  0.85186206  0.42835082    -0.57590
C641        C  0.28488709  0.82915459  0.36099175     0.76160
C642        C  0.20065708  0.83991389  0.37595645     0.78560
Cd643      Cd  0.24611052  0.82231300  0.39459553     1.37460
O644        O  0.24329722  0.78353294  0.37418102    -0.56430
O645        O  0.22093688  0.84895673  0.37023670    -0.55240
C646        C  0.26881705  0.83855388  0.43841533     0.78520
O647        O  0.20093109  0.82409004  0.39236628    -0.57620
O648        O  0.23854629  0.78232962  0.41270897    -0.56070
O649        O  0.27368473  0.84729886  0.36930731    -0.56060
O650        O  0.27191062  0.81778232  0.42956857    -0.55230
O651        O  0.24088129  0.65579184  0.36776788    -0.56440
C652        C  0.20247501  0.61105291  0.35580286     0.76190
O653        O  0.29026160  0.61231200  0.37939968    -0.57590
C654        C  0.24739843  0.66698850  0.38662044     0.76160
C655        C  0.22403823  0.59617477  0.42762787     0.78560
Cd656      Cd  0.24503500  0.61525731  0.38436891     1.37460
O657        O  0.20799663  0.63006285  0.36735993    -0.56430
O658        O  0.23571365  0.61587381  0.42761027    -0.55240
C659        C  0.28919148  0.60186896  0.35909985     0.78520
O660        O  0.22585258  0.58298264  0.40909010    -0.57620
O661        O  0.21684992  0.59336555  0.35744046    -0.56070
O662        O  0.25425381  0.65414388  0.40410519    -0.56060
O663        O  0.26836690  0.59522825  0.35242142    -0.55230
O664        O  0.36847762  0.89954739  0.51778945    -0.56440
C665        C  0.32353040  0.85275820  0.48321304     0.76190
O666        O  0.41255160  0.86181563  0.49125518    -0.57590
C667        C  0.37176143  0.89601064  0.53993945     0.76160
C668        C  0.37598040  0.80949040  0.52822187     0.78560
Cd669      Cd  0.37035998  0.85630237  0.50576336     1.37460
O670        O  0.32769915  0.86880585  0.49897755    -0.56430
O671        O  0.35711989  0.82206636  0.53080118    -0.55240
C672        C  0.40692419  0.86452269  0.46943662     0.78520
O673        O  0.39271059  0.81838288  0.51541955    -0.57620
O674        O  0.34062082  0.83851370  0.47810518    -0.56070
O675        O  0.37512368  0.87439165  0.54637844    -0.56060
O676        O  0.38464517  0.86415237  0.46444867    -0.55230
O677        O  0.15782262  0.71437925  0.64535598    -0.56440
C678        C  0.19241797  0.73063346  0.59480380     0.76190
O679        O  0.12492772  0.72803153  0.56683766    -0.57590
C680        C  0.13767091  0.70577195  0.65220602     0.76160
C681        C  0.12966477  0.77975654  0.62749795     0.78560
Cd682      Cd  0.14243660  0.73240604  0.60851077     1.37460
O683        O  0.18225512  0.71388146  0.60659749    -0.56430
O684        O  0.15037104  0.77488748  0.61914236    -0.55240
C685        C  0.12204144  0.70533212  0.56883731     0.78520
O686        O  0.11354931  0.76354648  0.62462209    -0.57620
O687        O  0.17928096  0.74829096  0.58876369    -0.56070
O688        O  0.11947693  0.71040658  0.63926436    -0.56060
O689        O  0.12630334  0.69633195  0.58908652    -0.55230
O690        O  0.32436694  0.75031709  0.63970069    -0.56440
C691        C  0.29549135  0.72844571  0.59343565     0.76190
O692        O  0.35758141  0.73245582  0.56593844    -0.57590
C693        C  0.34327240  0.75661395  0.65090809     0.76160
C694        C  0.35496329  0.67882939  0.62832563     0.78560
Cd695      Cd  0.34477683  0.72648989  0.60874879     1.37470
O696        O  0.30613306  0.74655967  0.60275061    -0.56430
O697        O  0.33499653  0.68433850  0.61896169    -0.55240
C698        C  0.36944417  0.75160020  0.57047737     0.78520
O699        O  0.37158958  0.69465637  0.62673489    -0.57620
O700        O  0.30809778  0.70963488  0.58996636    -0.56070
O701        O  0.36300770  0.74776183  0.64343497    -0.56060
O702        O  0.37265143  0.75679521  0.59229020    -0.55230
O703        O  0.09538246  0.49068559  0.66406992    -0.56440
C704        C  0.07892185  0.44793187  0.61985152     0.76190
O705        O  0.11149526  0.49853798  0.58327889    -0.57590
C706        C  0.11063972  0.50589274  0.67192711     0.76160
C707        C  0.16487334  0.46449973  0.62085514     0.78560
Cd708      Cd  0.11648077  0.48423059  0.62488987     1.37470
O709        O  0.07458078  0.47022103  0.61746053    -0.56430
O710        O  0.15294241  0.46383632  0.64025391    -0.55240
C711        C  0.11199205  0.52083647  0.58849285     0.78520
O712        O  0.15456200  0.47388426  0.60300414    -0.57620
O713        O  0.10064154  0.44213789  0.62385934    -0.56070
O714        O  0.12828812  0.51099754  0.65832320    -0.56060
O715        O  0.11377124  0.52639939  0.61048058    -0.55230
O716        O  0.24467935  0.36989582  0.81397031    -0.56440
C717        C  0.25834144  0.33824924  0.86303455     0.76190
O718        O  0.23821496  0.41344659  0.88216293    -0.57590
C719        C  0.23131673  0.38423643  0.80244345     0.76160
C720        C  0.18053968  0.36192481  0.86665555     0.78560
Cd721      Cd  0.22853074  0.37896843  0.85334099     1.37460
O722        O  0.24456742  0.33910639  0.84495738    -0.56430
O723        O  0.19897866  0.35781243  0.87937890    -0.55240
C724        C  0.25581411  0.42074178  0.86935049     0.78520
O725        O  0.18357936  0.37671923  0.84957750    -0.57620
O726        O  0.25745470  0.35595926  0.87756773    -0.56070
O727        O  0.21552525  0.39579385  0.81445384    -0.56060
O728        O  0.25897213  0.41019468  0.84954304    -0.55230
O729        O  0.22290762  0.38924347  0.68687331    -0.56440
C730        C  0.20480299  0.34716516  0.64545095     0.76190
O731        O  0.22446154  0.40438573  0.61580673    -0.57590
C732        C  0.24167128  0.38862935  0.69978384     0.76160
C733        C  0.28627375  0.35467956  0.63551832     0.78560
Cd734      Cd  0.24323080  0.38170714  0.64873113     1.37460
O735        O  0.21388216  0.35361288  0.66533190    -0.56430
O736        O  0.26491885  0.34755320  0.63144757    -0.55240
C737        C  0.22423870  0.42436608  0.62689053     0.78520
O738        O  0.28843595  0.37602341  0.64384928    -0.57620
O739        O  0.21392096  0.35644360  0.62671242    -0.56070
O740        O  0.26167882  0.38574232  0.68892863    -0.56060
O741        O  0.23697375  0.42596890  0.64564691    -0.55230
O742        O  0.36662944  0.49396974  0.91564805    -0.56440
C743        C  0.31545927  0.46077079  0.87724181     0.76190
O744        O  0.37916049  0.47993188  0.83095944    -0.57590
C745        C  0.37209872  0.51564833  0.91075621     0.76160
C746        C  0.40232802  0.44557513  0.88230298     0.78560
Cd747      Cd  0.36431883  0.47999718  0.87352790     1.37460
O748        O  0.32155059  0.47982843  0.88837658    -0.56430
O749        O  0.38025337  0.43955371  0.88374609    -0.55240
C750        C  0.36770097  0.49864811  0.82496643     0.78520
O751        O  0.40695707  0.46739589  0.87721227    -0.57620
O752        O  0.33159825  0.45073967  0.86456891    -0.56070
O753        O  0.37455939  0.52090296  0.88879667    -0.56060
O754        O  0.35481371  0.50849664  0.84101387    -0.55230
O755        O  0.32295938  0.61203765  0.76839572    -0.56440
C756        C  0.28981516  0.57159467  0.74684363     0.76190
O757        O  0.36859826  0.60169869  0.71430709    -0.57590
C758        C  0.34245502  0.62244113  0.77445363     0.76160
C759        C  0.36229933  0.53984902  0.76670438     0.78560
Cd760      Cd  0.34088491  0.58094751  0.74340093     1.37470
O761        O  0.30219590  0.57912066  0.76450156    -0.56430
O762        O  0.36838512  0.56133555  0.77148875    -0.55240
C763        C  0.35342491  0.60245231  0.69735918     0.78520
O764        O  0.34895036  0.53661625  0.74853707    -0.57620
O765        O  0.30130405  0.56722465  0.72752600    -0.56070
O766        O  0.36173170  0.61430245  0.76517990    -0.56060
O767        O  0.33401037  0.59070592  0.70066048    -0.55230
O768        O  0.17487136  0.58531542  0.73420781    -0.56440
C769        C  0.13424142  0.63433177  0.72647925     0.76190
O770        O  0.12023506  0.54787435  0.75008387    -0.57590
C771        C  0.18630479  0.57856766  0.75259707     0.76160
C772        C  0.11702700  0.60939203  0.79928637     0.78560
Cd773      Cd  0.13564004  0.59079083  0.75398151     1.37470
O774        O  0.15313784  0.62823845  0.73772080    -0.56430
O775        O  0.10532001  0.61138009  0.77990979    -0.55240
C776        C  0.11493976  0.55042194  0.72812049     0.78520
O777        O  0.13579924  0.59642970  0.79824930    -0.57620
O778        O  0.11576696  0.62092612  0.72912905    -0.56070
O779        O  0.17426383  0.57722631  0.77196222    -0.56060
O780        O  0.11691740  0.57137075  0.71959500    -0.55230
O781        O  0.14394624  0.74722101  0.85248767    -0.56440
C782        C  0.18124153  0.72280954  0.89244842     0.76190
O783        O  0.10852265  0.73605955  0.92782625    -0.57590
C784        C  0.12443858  0.75773994  0.84724573     0.76160
C785        C  0.11163385  0.68131680  0.87222716     0.78560
Cd786      Cd  0.12978459  0.72770632  0.88843056     1.37470
O787        O  0.17031760  0.72550174  0.87275841    -0.56430
O788        O  0.10045491  0.70071767  0.86785292    -0.55240
C789        C  0.11534046  0.75805127  0.92836282     0.78520
O790        O  0.12848188  0.68288408  0.88753591    -0.57620
O791        O  0.16814908  0.72145134  0.91116393    -0.56070
O792        O  0.10652759  0.75407589  0.86110942    -0.56060
O793        O  0.12784522  0.76540591  0.91087928    -0.55230
O794        O  0.29629031  0.72657048  0.87081013    -0.56440
C795        C  0.34110473  0.69637722  0.84769899     0.76190
O796        O  0.36412170  0.76168878  0.86659126    -0.57590
C797        C  0.28536544  0.72806653  0.89077280     0.76160
C798        C  0.35761754  0.70768134  0.92725309     0.78560
Cd799      Cd  0.33700281  0.73098827  0.88596623     1.37470
O800        O  0.32223770  0.69885891  0.86033950    -0.56430
O801        O  0.36239219  0.70115119  0.90603856    -0.55240
C802        C  0.34910675  0.77884010  0.86781606     0.78520
O803        O  0.34553576  0.72689794  0.92983108    -0.57620
O804        O  0.35888209  0.71009568  0.85278792    -0.56070
O805        O  0.29842728  0.73168761  0.90916789    -0.56060
O806        O  0.33017092  0.77466298  0.87990885    -0.55230
O807        O  0.36493467  0.56368291  0.98340195    -0.56440
C808        C  0.31669476  0.60454048  0.01701139     0.76190
O809        O  0.40792760  0.60839424  0.01020880    -0.57590
C810        C  0.37280863  0.56796691  0.96249269     0.76160
C811        C  0.36556802  0.65298587  0.97340272     0.78560
Cd812      Cd  0.36517208  0.60641859  0.99687211     1.37460
O813        O  0.32305666  0.59017332  0.00046387    -0.56430
O814        O  0.35451091  0.63479542  0.96488036    -0.55240
C815        C  0.40406387  0.60082820  0.03125499     0.78520
O816        O  0.37641500  0.65012984  0.99313606    -0.57620
O817        O  0.33243920  0.61958543  0.02425959    -0.56070
O818        O  0.37800197  0.58971261  0.95764668    -0.56060
O819        O  0.38244156  0.59539096  0.03652173    -0.55230
O820        O  0.15302084  0.88120673  0.01644408    -0.56440
C821        C  0.11131758  0.89271624  0.96363568     0.76190
O822        O  0.09278399  0.82587235  0.98131585    -0.57590
C823        C  0.16290777  0.86320321  0.02620828     0.76160
C824        C  0.08255254  0.86351598  0.04183871     0.78560
Cd825      Cd  0.11651189  0.85829788  0.00226912     1.37460
O826        O  0.13110528  0.88217028  0.96762396    -0.56430
O827        O  0.09185832  0.88177984  0.03171786    -0.55240
C828        C  0.11093789  0.81309701  0.97595291     0.78520
O829        O  0.08891839  0.84299966  0.03401225    -0.57620
O830        O  0.09372488  0.88741808  0.97723618    -0.56070
O831        O  0.15148465  0.84332250  0.02518928    -0.56060
O832        O  0.13133268  0.82086427  0.98284964    -0.55230
O833        O  0.27232846  0.64279642  0.12662902    -0.56440
C834        C  0.23860034  0.68163847  0.10281338     0.76190
O835        O  0.25565051  0.59757813  0.07662048    -0.57590
C836        C  0.27753125  0.62244947  0.13544265     0.76160
C837        C  0.19473133  0.61550709  0.12841511     0.78560
Cd838      Cd  0.23855167  0.62953851  0.10288374     1.37470
O839        O  0.25768403  0.66938110  0.10505870    -0.56430
O840        O  0.21581155  0.61088116  0.13571534    -0.55240
C841        C  0.25779473  0.61097207  0.05844981     0.78520
O842        O  0.19334525  0.62503394  0.10778758    -0.57620
O843        O  0.21903220  0.66977442  0.10021578    -0.56070
O844        O  0.26413840  0.60469450  0.12952546    -0.56060
O845        O  0.24704462  0.63104294  0.05920558    -0.55230
O846        O  0.22537042  0.79743004  0.11916648    -0.56440
C847        C  0.20368444  0.84758562  0.14517874     0.76190
O848        O  0.28729938  0.84452394  0.11583581    -0.57590
C849        C  0.24249034  0.78585662  0.10941115     0.76160
C850        C  0.22070491  0.85659278  0.06905926     0.78560
Cd851      Cd  0.24192202  0.83779481  0.11231363     1.37470
O852        O  0.20664729  0.82720759  0.13513211    -0.56430
O853        O  0.22757784  0.83496911  0.07068285    -0.55240
C854        C  0.28618900  0.85005788  0.13798823     0.78520
O855        O  0.22727357  0.87092582  0.08562556    -0.57620
O856        O  0.21871741  0.86418433  0.13998133    -0.56070
O857        O  0.26012668  0.79832232  0.10147008    -0.56060
O858        O  0.26521388  0.85114166  0.14694603    -0.55230
O859        O  0.17582433  0.87269951  0.76404381    -0.56440
C860        C  0.12775239  0.83027790  0.77426437     0.76190
O861        O  0.11310841  0.91303801  0.75216729    -0.57590
C862        C  0.18531179  0.88705335  0.74903092     0.76160
C863        C  0.12564348  0.85370097  0.69973876     0.78560
Cd864      Cd  0.13538852  0.87334241  0.74722416     1.37460
O865        O  0.14818037  0.83578388  0.76539249    -0.56430
O866        O  0.14546783  0.86374719  0.70534370    -0.55240
C867        C  0.11537443  0.91269519  0.77487386     0.78520
O868        O  0.10875383  0.85537191  0.71514912    -0.57620
O869        O  0.11030146  0.84419953  0.76950898    -0.56070
O870        O  0.17154035  0.89559689  0.73304554    -0.56060
O871        O  0.12529713  0.89442250  0.78377794    -0.55230
O872        O  0.29893273  0.88061388  0.73204370    -0.56440
C873        C  0.33997699  0.83284272  0.72169190     0.76190
O874        O  0.35108787  0.91886485  0.74918955    -0.57590
C875        C  0.28834963  0.88915219  0.75041072     0.76160
C876        C  0.34887204  0.85384646  0.79757358     0.78560
Cd877      Cd  0.33806459  0.87535635  0.75144289     1.37470
O878        O  0.32029303  0.84338024  0.72659132    -0.56430
O879        O  0.32827693  0.86185010  0.79211426    -0.55240
C880        C  0.36032108  0.91642584  0.72848905     0.78520
O881        O  0.36572601  0.85800143  0.78261046    -0.57620
O882        O  0.35892891  0.84165506  0.73113958    -0.56070
O883        O  0.30110607  0.89229822  0.76907006    -0.56060
O884        O  0.36211590  0.89517510  0.72040554    -0.55230
O885        O  0.07747901  0.00770821  0.86257465    -0.56440
C886        C  0.10754730  0.95834917  0.83036245     0.76190
O887        O  0.14915219  0.99565861  0.89768372    -0.57590
C888        C  0.07471293  0.01941860  0.88192574     0.76160
C889        C  0.10886523  0.94390063  0.91113471     0.78560
Cd890      Cd  0.11141442  0.98265403  0.87648993     1.37470
O891        O  0.09012335  0.95832140  0.84514991    -0.56430
O892        O  0.09226461  0.95945787  0.90962738    -0.55240
C893        C  0.15589872  0.01015735  0.88148158     0.78520
O894        O  0.12624431  0.94575216  0.89643163    -0.57620
O895        O  0.12660761  0.96939734  0.83672493    -0.56070
O896        O  0.08859367  0.01415772  0.89909117    -0.56060
O897        O  0.14247653  0.01177572  0.86323545    -0.55230
O898        O  0.36220753  0.98514071  0.67237132    -0.56440
C899        C  0.39424206  0.02384404  0.62583139     0.76190
O900        O  0.34681781  0.94986511  0.60318816    -0.57590
C901        C  0.36456831  0.96244192  0.67379155     0.76160
C902        C  0.31000374  0.00512124  0.62416269     0.78560
Cd903      Cd  0.35840929  0.98549154  0.62773884     1.37470
O904        O  0.39910111  0.00307478  0.63378428    -0.56430
O905        O  0.31770956  0.99578999  0.64333050    -0.55240
C906        C  0.36553278  0.94981799  0.59009605     0.78520
O907        O  0.32427346  0.00509081  0.60636013    -0.57620
O908        O  0.37299386  0.02705657  0.61818375    -0.56070
O909        O  0.36408218  0.95059501  0.65430093    -0.56060
O910        O  0.38096066  0.96638873  0.59391024    -0.55230
O911        O  0.21615462  0.14264214  0.84681600    -0.56440
C912        C  0.23256143  0.09557465  0.80657910     0.76190
O913        O  0.27640729  0.10803413  0.85784893    -0.57590
C914        C  0.20148832  0.14453458  0.86423099     0.76160
C915        C  0.20728405  0.06062787  0.87507574     0.78560
Cd916      Cd  0.23171646  0.10346093  0.85769652     1.37470
O917        O  0.21578956  0.10686013  0.81716578    -0.56430
O918        O  0.19832356  0.07529617  0.86046290    -0.55240
C919        C  0.27713699  0.12351669  0.87473599     0.78520
O920        O  0.22843242  0.06531828  0.88264145    -0.57620
O921        O  0.24955930  0.08784567  0.81966891    -0.56070
O922        O  0.20164053  0.12772618  0.87964765    -0.56060
O923        O  0.25732799  0.12745822  0.88552673    -0.55230
O924        O  0.25179396  0.08997033  0.69185958    -0.56440
C925        C  0.27438046  0.12601400  0.64900288     0.76190
O926        O  0.25371833  0.06857704  0.61979207    -0.57590
C927        C  0.23199677  0.08904717  0.70326357     0.76160
C928        C  0.19317821  0.12099528  0.63591247     0.78560
Cd929      Cd  0.23457220  0.09305607  0.65182523     1.37470
O930        O  0.26657556  0.11769294  0.66869453    -0.56430
O931        O  0.21484587  0.12826268  0.63467625    -0.55240
C932        C  0.25319333  0.04896361  0.63126971     0.78520
O933        O  0.19008930  0.09945804  0.64319910    -0.57620
O934        O  0.26355126  0.11911726  0.63010884    -0.56070
O935        O  0.21283136  0.08927511  0.69075966    -0.56060
O936        O  0.24046763  0.04853345  0.65014232    -0.55230
C937        C  0.21048222  0.09512404  0.76753219    -0.11970
C938        C  0.23215213  0.09201904  0.78030830     0.10180
C939        C  0.25341442  0.08645680  0.76767028    -0.11970
C940        C  0.25319448  0.08492606  0.74259707    -0.11970
C941        C  0.23162636  0.08855418  0.72976987     0.10180
C942        C  0.21018313  0.09322909  0.74248696    -0.11970
H943        H  0.19379086  0.09928992  0.77690018     0.14170
H944        H  0.27033871  0.08402002  0.77710597     0.14170
H945        H  0.27000147  0.08128117  0.73322078     0.14170
H946        H  0.19334467  0.09615898  0.73304914     0.14170
C947        C  0.28666942  0.01656288  0.62323355    -0.11900
C948        C  0.26911761  0.02939661  0.62506006    -0.13450
C949        C  0.17745245  0.02474956  0.88360304    -0.11900
C950        C  0.19334382  0.03977244  0.88204457    -0.13450
C951        C  0.36682154  0.95023961  0.69642823    -0.11900
C952        C  0.36602674  0.93660847  0.71329568    -0.13450
C953        C  0.10824799  0.93212255  0.79062369    -0.11900
C954        C  0.10632012  0.94545024  0.80781739    -0.13450
C955        C  0.22435721  0.89604613  0.72837239    -0.11970
C956        C  0.21135159  0.89248777  0.74976462     0.10180
C957        C  0.22382476  0.89128533  0.77164960    -0.11970
C958        C  0.24905906  0.89219447  0.77200937    -0.11970
C959        C  0.26215197  0.89364111  0.75041631     0.10180
C960        C  0.24964920  0.89629286  0.72865518    -0.11970
H961        H  0.21504516  0.89696154  0.71130066     0.14170
H962        H  0.21407560  0.88868015  0.78836722     0.14170
H963        H  0.25831378  0.89009046  0.78899812     0.14170
H964        H  0.25942165  0.89752829  0.71179606     0.14170
C965        C  0.21825283  0.72165908  0.10781305    -0.11970
C966        C  0.23938892  0.70833460  0.10361281     0.10180
C967        C  0.26158029  0.72069327  0.10102198    -0.11970
C968        C  0.26261854  0.74594756  0.10261198    -0.11970
C969        C  0.24155479  0.75923245  0.10727893     0.10180
C970        C  0.21936200  0.74687646  0.10984340    -0.11970
H971        H  0.20095662  0.71256393  0.10998015     0.14170
H972        H  0.27815898  0.71082218  0.09775500     0.14170
H973        H  0.27992625  0.75504633  0.10056162     0.14170
H974        H  0.20281270  0.75673342  0.11330434     0.14170
C975        C  0.10912287  0.91016410  0.94468202    -0.11900
C976        C  0.10836921  0.92527457  0.92910000    -0.13450
C977        C  0.18584085  0.86502677  0.03840409    -0.11900
C978        C  0.20365956  0.86340269  0.05084259    -0.13450
C979        C  0.29285550  0.60377613  0.02755344    -0.11900
C980        C  0.27463817  0.60533307  0.03952419    -0.13450
C981        C  0.33315922  0.81830669  0.85320957    -0.11970
C982        C  0.35221620  0.80160206  0.85406630     0.10180
C983        C  0.37219516  0.80493414  0.83865720    -0.11970
C984        C  0.37217921  0.82342359  0.82145548    -0.11970
C985        C  0.35210397  0.83876107  0.81927429     0.10180
C986        C  0.33306599  0.83660551  0.83596584    -0.11970
H987        H  0.31748979  0.81626289  0.86478836     0.14170
H988        H  0.38712238  0.79232084  0.83884326     0.14170
H989        H  0.38704998  0.82457122  0.80878007     0.14170
H990        H  0.31734994  0.84816863  0.83479054     0.14170
C991        C  0.36366848  0.69236971  0.94709688    -0.11900
C992        C  0.36573572  0.67564595  0.96079748    -0.13450
C993        C  0.14345446  0.77578143  0.81100928    -0.11970
C994        C  0.12335362  0.77400095  0.82642507     0.10180
C995        C  0.10339898  0.78913792  0.82276160    -0.11970
C996        C  0.10418501  0.80673405  0.80478361    -0.11970
C997        C  0.12494847  0.80938581  0.79033976     0.10180
C998        C  0.14425702  0.79331413  0.79317009    -0.11970
H999        H  0.15901160  0.76418319  0.81327981     0.14170
H1000       H  0.08768156  0.78807134  0.83439871     0.14170
H1001       H  0.08906662  0.81897149  0.80295418     0.14170
H1002       H  0.16040667  0.79486433  0.78218235     0.14170
C1003       C  0.10992162  0.77445852  0.94781143    -0.11900
C1004       C  0.10886163  0.79124412  0.96181302    -0.13450
C1005       C  0.22086197  0.72527985  0.91447978    -0.11970
C1006       C  0.20789778  0.72207335  0.89299360     0.10180
C1007       C  0.22063615  0.71988022  0.87123948    -0.11970
C1008       C  0.24575142  0.72153866  0.87077373    -0.11970
C1009       C  0.25879267  0.72553412  0.89204598     0.10180
C1010       C  0.24619774  0.72705459  0.91400124    -0.11970
H1011       H  0.21141782  0.72710217  0.93147052     0.14170
H1012       H  0.21114468  0.71728128  0.85440210     0.14170
H1013       H  0.25493033  0.72003943  0.85360564     0.14170
H1014       H  0.25587190  0.72995232  0.93068058     0.14170
C1015       C  0.12484873  0.62164727  0.84201364    -0.11970
C1016       C  0.11056146  0.62335188  0.82123833     0.10180
C1017       C  0.09291975  0.64155571  0.82019025    -0.11970
C1018       C  0.09139339  0.65918445  0.83833446    -0.11970
C1019       C  0.10744716  0.65892179  0.85790258     0.10180
C1020       C  0.12326676  0.63922462  0.86019483    -0.11970
H1021       H  0.13854204  0.60778402  0.84341257     0.14170
H1022       H  0.08161113  0.64335663  0.80444478     0.14170
H1023       H  0.07902226  0.67411852  0.83599354     0.14170
H1024       H  0.13589099  0.63848145  0.87501700     0.14170
C1025       C  0.32091243  0.64772805  0.80447608    -0.11970
C1026       C  0.34239240  0.64240813  0.79207849     0.10180
C1027       C  0.36361155  0.65544443  0.79760069    -0.11970
C1028       C  0.36331360  0.67338410  0.81549679    -0.11970
C1029       C  0.34184718  0.67828413  0.82817597     0.10180
C1030       C  0.32066109  0.66539225  0.82236320    -0.11970
H1031       H  0.30430739  0.63789336  0.80069173     0.14170
H1032       H  0.38041011  0.65161344  0.78828567     0.14170
H1033       H  0.37987365  0.68312232  0.81965472     0.14170
H1034       H  0.30382193  0.66882330  0.83177208     0.14170
C1035       C  0.25161403  0.57134414  0.77100759    -0.11970
C1036       C  0.26322123  0.56946547  0.74855126     0.10180
C1037       C  0.24911926  0.56816699  0.72764679    -0.11970
C1038       C  0.22395949  0.57027185  0.72906696    -0.11970
C1039       C  0.21244939  0.57334132  0.75143502     0.10180
C1040       C  0.22641829  0.57308252  0.77244997    -0.11970
H1041       H  0.26207155  0.57230685  0.78742624     0.14170
H1042       H  0.25759443  0.56674953  0.71012323     0.14170
H1043       H  0.21356442  0.57020545  0.71259307     0.14170
H1044       H  0.21798959  0.57536170  0.78990861     0.14170
C1045       C  0.37485973  0.54912492  0.94472108    -0.11900
C1046       C  0.37461407  0.53367133  0.92930705    -0.13450
C1047       C  0.36791490  0.52077834  0.78319959    -0.11900
C1048       C  0.36918072  0.50871841  0.80119055    -0.13450
C1049       C  0.29138982  0.45069426  0.87866017    -0.11900
C1050       C  0.27293209  0.43899045  0.87676247    -0.13450
C1051       C  0.25622226  0.38029761  0.76530486    -0.11970
C1052       C  0.23439271  0.38719745  0.77634484     0.10180
C1053       C  0.21564484  0.39637294  0.76220347    -0.11970
C1054       C  0.21830314  0.39756290  0.73725318    -0.11970
C1055       C  0.23991962  0.39004175  0.72616133     0.10180
C1056       C  0.25904240  0.38190514  0.74044229    -0.11970
H1057       H  0.27106076  0.37340562  0.77589154     0.14170
H1058       H  0.19869843  0.40187582  0.77033864     0.14170
H1059       H  0.20328502  0.40393226  0.72659388     0.14170
H1060       H  0.27583590  0.37592188  0.73232877     0.14170
C1061       C  0.18877172  0.45435265  0.61925831    -0.11900
C1062       C  0.20721742  0.44282989  0.62066720    -0.13450
C1063       C  0.10808953  0.51747628  0.69499019    -0.11900
C1064       C  0.10902534  0.53058118  0.71239620    -0.13450
C1065       C  0.36357107  0.78198597  0.68244731    -0.11970
C1066       C  0.34229937  0.77422822  0.67088669     0.10180
C1067       C  0.32015901  0.78488789  0.67724320    -0.11970
C1068       C  0.31937948  0.80349337  0.69426636    -0.11970
C1069       C  0.34072265  0.81180471  0.70528483     0.10180
C1070       C  0.36278703  0.80063692  0.69952845    -0.11970
H1071       H  0.38088570  0.77410812  0.67782346     0.14170
H1072       H  0.30348448  0.77932814  0.66856236     0.14170
H1073       H  0.30211696  0.81177108  0.69835569     0.14170
H1074       H  0.37950607  0.80669875  0.70778739     0.14170
C1075       C  0.37742639  0.65251827  0.65737329    -0.11970
C1076       C  0.35766955  0.65595988  0.64192891     0.10180
C1077       C  0.33854488  0.63902643  0.64233885    -0.11970
C1078       C  0.33821735  0.62026345  0.65910764    -0.11970
C1079       C  0.35696650  0.61802355  0.67594629     0.10180
C1080       C  0.37705849  0.63373572  0.67426617    -0.11970
H1081       H  0.39239154  0.66528383  0.65752221     0.14170
H1082       H  0.32307642  0.64110699  0.63063042     0.14170
H1083       H  0.32247779  0.60848616  0.65988753     0.14170
H1084       H  0.39176093  0.63251722  0.68701810     0.14170
C1085       C  0.11409421  0.67773203  0.67853602    -0.11970
C1086       C  0.13575382  0.69018713  0.67353960     0.10180
C1087       C  0.15618108  0.68595377  0.68784054    -0.11970
C1088       C  0.15533329  0.66862497  0.70599474    -0.11970
C1089       C  0.13406431  0.65519939  0.71009498     0.10180
C1090       C  0.11326459  0.66035585  0.69664397    -0.11970
H1091       H  0.09807397  0.68065705  0.66778775     0.14170
H1092       H  0.17308358  0.69538846  0.68442675     0.14170
H1093       H  0.17161277  0.66504369  0.71613359     0.14170
H1094       H  0.09661257  0.65028206  0.69944461     0.14170
C1095       C  0.10478668  0.80490090  0.65613759    -0.11970
C1096       C  0.12553798  0.80226672  0.64165289     0.10180
C1097       C  0.14429423  0.81946033  0.64386866    -0.11970
C1098       C  0.14328073  0.83757685  0.66149691    -0.11970
C1099       C  0.12349776  0.83896344  0.67740016     0.10180
C1100       C  0.10377995  0.82309016  0.67387451    -0.11970
H1101       H  0.09007777  0.79189197  0.65492948     0.14170
H1102       H  0.16051191  0.81800962  0.63297425     0.14170
H1103       H  0.15876521  0.84952526  0.66366371     0.14170
H1104       H  0.08833178  0.82362136  0.68588656     0.14170
C1105       C  0.23180923  0.75152917  0.58733233    -0.11970
C1106       C  0.21850459  0.72992164  0.58953168     0.10180
C1107       C  0.23072324  0.70770662  0.58941816    -0.11970
C1108       C  0.25596957  0.70716587  0.58863871    -0.11970
C1109       C  0.26933884  0.72886040  0.58855591     0.10180
C1110       C  0.25709020  0.75101963  0.58713926    -0.11970
H1111       H  0.22274396  0.76886519  0.58740249     0.14170
H1112       H  0.22077955  0.69080639  0.59093811     0.14170
H1113       H  0.26500929  0.68986403  0.58979271     0.14170
H1114       H  0.26705461  0.76798050  0.58698233     0.14170
C1115       C  0.37101732  0.91557846  0.55710770    -0.11900
C1116       C  0.36907063  0.93156469  0.57188669    -0.13450
C1117       C  0.37808955  0.78635910  0.53980009    -0.11900
C1118       C  0.37645689  0.76850731  0.55215711    -0.13450
C1119       C  0.30069550  0.85080437  0.47105734    -0.11900
C1120       C  0.28388555  0.84675235  0.45781643    -0.13450
C1121       C  0.23945586  0.73245296  0.36928166    -0.11970
C1122       C  0.24119332  0.74425649  0.39164617     0.10180
C1123       C  0.24540038  0.73050993  0.41234753    -0.11970
C1124       C  0.24801250  0.70538745  0.41066185    -0.11970
C1125       C  0.24616262  0.69360094  0.38829069     0.10180
C1126       C  0.24174850  0.70735026  0.36764170    -0.11970
H1127       H  0.23639434  0.74264511  0.35301039     0.14170
H1128       H  0.24713128  0.73921777  0.42975296     0.14170
H1129       H  0.25120997  0.69516664  0.42688504     0.14170
H1130       H  0.24013189  0.69871011  0.35018779     0.14170
C1131       C  0.11133560  0.53900991  0.57015723    -0.11900
C1132       C  0.11232818  0.55392222  0.55442130    -0.13450
C1133       C  0.11474390  0.67275445  0.53508704    -0.11900
C1134       C  0.11601808  0.68958933  0.54902076    -0.13450
C1135       C  0.20681111  0.59095764  0.44635546    -0.11900
C1136       C  0.18908284  0.59113942  0.45914697    -0.13450
C1137       C  0.29426165  0.28217442  0.84962131    -0.11970
C1138       C  0.31229049  0.28347226  0.86727824     0.10180
C1139       C  0.31101334  0.30148885  0.88515230    -0.11970
C1140       C  0.29268494  0.31878218  0.88454485    -0.11970
C1141       C  0.27537544  0.31816857  0.86611682     0.10180
C1142       C  0.27593335  0.29933136  0.84908149    -0.11970
H1143       H  0.29475307  0.26835350  0.83574084     0.14170
H1144       H  0.32474818  0.30284946  0.89895753     0.14170
H1145       H  0.29264492  0.33315246  0.89787463     0.14170
H1146       H  0.26275162  0.29837905  0.83473035     0.14170
C1147       C  0.33919009  0.15174068  0.86691209    -0.11970
C1148       C  0.33721041  0.17264291  0.88132350     0.10180
C1149       C  0.31707203  0.17485595  0.89669534    -0.11970
C1150       C  0.29832274  0.15765942  0.89605576    -0.11970
C1151       C  0.29932625  0.13787823  0.88004762     0.10180
C1152       C  0.32044306  0.13453253  0.86628357    -0.11970
H1153       H  0.35445116  0.14950007  0.85485509     0.14170
H1154       H  0.31493852  0.19077270  0.90795392     0.14170
H1155       H  0.28230268  0.16078880  0.90688539     0.14170
H1156       H  0.32179481  0.11948259  0.85379903     0.14170
C1157       C  0.32578998  0.16550559  0.67013443    -0.11970
C1158       C  0.33131673  0.17874621  0.64937716     0.10180
C1159       C  0.31913286  0.17340254  0.62785653    -0.11970
C1160       C  0.30093154  0.15569668  0.62742314    -0.11970
C1161       C  0.29480075  0.14316812  0.64849626     0.10180
C1162       C  0.30772225  0.14787525  0.66969550    -0.11970
H1163       H  0.33515249  0.16905994  0.68687930     0.14170
H1164       H  0.32318865  0.18334610  0.61160112     0.14170
H1165       H  0.29124355  0.15228690  0.61083806     0.14170
H1166       H  0.30354984  0.13825979  0.68612113     0.14170
C1167       C  0.34727393  0.32425742  0.64356183    -0.11970
C1168       C  0.34216691  0.30093836  0.63449074     0.10180
C1169       C  0.32001429  0.29688625  0.62276313    -0.11970
C1170       C  0.30268132  0.31508944  0.62158544    -0.11970
C1171       C  0.30692512  0.33787866  0.63218795     0.10180
C1172       C  0.32974435  0.34260493  0.64245824    -0.11970
H1173       H  0.36415977  0.32787271  0.65278918     0.14170
H1174       H  0.31555292  0.27919388  0.61545230     0.14170
H1175       H  0.28536645  0.31083352  0.61344096     0.14170
H1176       H  0.33349512  0.35994262  0.65088625     0.14170
C1177       C  0.38999200  0.21646973  0.74536279    -0.11970
C1178       C  0.39014650  0.23850130  0.73280138     0.10180
C1179       C  0.39042790  0.26035550  0.74578321    -0.11970
C1180       C  0.38940992  0.26017290  0.77088006    -0.11970
C1181       C  0.38851576  0.23813984  0.78339138     0.10180
C1182       C  0.38938441  0.21629293  0.77045420    -0.11970
H1183       H  0.38987435  0.19933869  0.73577563     0.14170
H1184       H  0.39056703  0.27756198  0.73654010     0.14170
H1185       H  0.38887691  0.27727327  0.78049810     0.14170
H1186       H  0.38864230  0.19908581  0.77968675     0.14170
C1187       C  0.41206620  0.04293970  0.62594578    -0.11900
C1188       C  0.42773299  0.05823179  0.62734496    -0.13450
C1189       C  0.44455425  0.19744745  0.62932655    -0.11900
C1190       C  0.45620159  0.17903346  0.62840542    -0.13450
C1191       C  0.43743797  0.41366437  0.88690802    -0.11900
C1192       C  0.42133893  0.42827988  0.88567263    -0.13450
C1193       C  0.45266204  0.29324588  0.88847529    -0.11900
C1194       C  0.43799934  0.27702979  0.88680385    -0.13450
C1195       C  0.53752860  0.35624658  0.79248305    -0.11900
C1196       C  0.52562106  0.35907333  0.81048576    -0.13450
C1197       C  0.53917423  0.09877563  0.72122423    -0.11900
C1198       C  0.52592010  0.09833406  0.70397663    -0.13450
C1199       C  0.59219120  0.21124689  0.73452448    -0.11970
C1200       C  0.59684875  0.19961892  0.75643622     0.10180
C1201       C  0.60121031  0.21367635  0.77705808    -0.11970
C1202       C  0.60146038  0.23888690  0.77572665    -0.11970
C1203       C  0.59693125  0.25056752  0.75383843     0.10180
C1204       C  0.59199504  0.23656193  0.73328433    -0.11970
H1205       H  0.58873826  0.20077181  0.71836471     0.14170
H1206       H  0.60493643  0.20518212  0.79413778     0.14170
H1207       H  0.60517983  0.24926732  0.79189391     0.14170
H1208       H  0.58845591  0.24515720  0.71621969     0.14170
C1209       C  0.68054964  0.09739050  0.67496098    -0.11970
C1210       C  0.69786942  0.11610403  0.67416641     0.10180
C1211       C  0.69796322  0.13389901  0.69228382    -0.11970
C1212       C  0.68039603  0.13361316  0.71030614    -0.11970
C1213       C  0.66241657  0.11553831  0.71050821     0.10180
C1214       C  0.66293206  0.09711850  0.69300515    -0.11970
H1215       H  0.68005221  0.08349241  0.66115267     0.14170
H1216       H  0.71114068  0.14851312  0.69210395     0.14170
H1217       H  0.68046583  0.14796762  0.72365215     0.14170
H1218       H  0.64927002  0.08295313  0.69279367     0.14170
C1219       C  0.64883659  0.33571279  0.64708488    -0.11970
C1220       C  0.66927125  0.35097994  0.64861478     0.10180
C1221       C  0.67145402  0.36661641  0.66854076    -0.11970
C1222       C  0.65486583  0.36542154  0.68751648    -0.11970
C1223       C  0.63551930  0.34879548  0.68688144     0.10180
C1224       C  0.63201795  0.33473011  0.66601801    -0.11970
H1225       H  0.64670374  0.32337827  0.63203036     0.14170
H1226       H  0.68698528  0.37856715  0.67033388     0.14170
H1227       H  0.65796056  0.37659505  0.70328788     0.14170
H1228       H  0.61728363  0.32172366  0.66505161     0.14170
C1229       C  0.71682658  0.24095508  0.60232523    -0.11970
C1230       C  0.73810958  0.25490462  0.60278804     0.10180
C1231       C  0.76066061  0.24326076  0.60202753    -0.11970
C1232       C  0.76190245  0.21799942  0.60143510    -0.11970
C1233       C  0.74061534  0.20406462  0.60218368     0.10180
C1234       C  0.71807573  0.21571693  0.60231897    -0.11970
H1235       H  0.69925672  0.24953760  0.60292129     0.14170
H1236       H  0.77733159  0.25369888  0.60223026     0.14170
H1237       H  0.77946196  0.20938012  0.60139838     0.14170
H1238       H  0.70140658  0.20528427  0.60278734     0.14170
C1239       C  0.79071034  0.36171013  0.53629872    -0.11900
C1240       C  0.77313622  0.35897630  0.54895395    -0.13450
C1241       C  0.87037012  0.28584913  0.48068015    -0.11900
C1242       C  0.86821712  0.26753477  0.46889749    -0.13450
C1243       C  0.74893403  0.24380363  0.43155552    -0.11970
C1244       C  0.76072818  0.22206728  0.42577272     0.10180
C1245       C  0.74693619  0.20117991  0.42109735    -0.11970
C1246       C  0.72166937  0.20261244  0.42006962    -0.11970
C1247       C  0.70997691  0.22484550  0.42413804     0.10180
C1248       C  0.72376434  0.24513679  0.43095922    -0.11970
H1249       H  0.75926484  0.26011082  0.43541174     0.14170
H1250       H  0.75569463  0.18426156  0.41655241     0.14170
H1251       H  0.71137940  0.18663940  0.41496849     0.14170
H1252       H  0.71523155  0.26244059  0.43431553     0.14170
C1253       C  0.54421557  0.09906178  0.58306627    -0.11900
C1254       C  0.55888298  0.09891024  0.56695258    -0.13450
C1255       C  0.68262619  0.10128128  0.53722396    -0.11900
C1256       C  0.70027854  0.10277432  0.54986142    -0.13450
C1257       C  0.60435187  0.19511247  0.46338873    -0.11900
C1258       C  0.60291536  0.17774673  0.47641346    -0.13450
C1259       C  0.75630416  0.24670001  0.09556866    -0.11970
C1260       C  0.76910542  0.22496418  0.09759580     0.10180
C1261       C  0.75621197  0.20294708  0.09877594    -0.11970
C1262       C  0.73088607  0.20279899  0.09907176    -0.11970
C1263       C  0.71818873  0.22470250  0.09876622     0.10180
C1264       C  0.73106247  0.24658577  0.09642304    -0.11970
H1265       H  0.76579685  0.26390358  0.09473276     0.14170
H1266       H  0.76571328  0.18593346  0.10032835     0.14170
H1267       H  0.72130526  0.18572816  0.10091471     0.14170
H1268       H  0.72160058  0.26370065  0.09598881     0.14170
C1269       C  0.87833668  0.17427246  0.04137271    -0.11900
C1270       C  0.87693290  0.19177245  0.05437411    -0.13450
C1271       C  0.56689879  0.36892571  0.94882239    -0.11900
C1272       C  0.55144108  0.36944099  0.93354120    -0.13450
C1273       C  0.61312440  0.26990958  0.05464258    -0.11900
C1274       C  0.61065341  0.28745479  0.04206256    -0.13450
C1275       C  0.67394675  0.08387367  0.84369476    -0.11970
C1276       C  0.67327674  0.10077395  0.86268723     0.10180
C1277       C  0.65282587  0.11565349  0.86506781    -0.11970
C1278       C  0.63459690  0.11522317  0.84754489    -0.11970
C1279       C  0.63649256  0.09990754  0.82733293     0.10180
C1280       C  0.65577348  0.08343902  0.82623309    -0.11970
H1281       H  0.68939057  0.07208996  0.84136435     0.14170
H1282       H  0.65177785  0.12889078  0.87946002     0.14170
H1283       H  0.62001548  0.12818372  0.84889327     0.14170
H1284       H  0.65777909  0.07138257  0.81094519     0.14170
C1285       C  0.78246910  0.09859321  0.95794493    -0.11900
C1286       C  0.79980189  0.09664095  0.97094729    -0.13450
C1287       C  0.66919054  0.31742075  0.84655091    -0.11970
C1288       C  0.68597380  0.33652676  0.84817603     0.10180
C1289       C  0.68416684  0.35614954  0.83232934    -0.11970
C1290       C  0.66643842  0.35608723  0.81443017    -0.11970
C1291       C  0.65039416  0.33637641  0.81219258     0.10180
C1292       C  0.65160410  0.31733750  0.82873764    -0.11970
H1293       H  0.67002671  0.30216371  0.85865889     0.14170
H1294       H  0.69685723  0.37115682  0.83332305     0.14170
H1295       H  0.66574327  0.37104235  0.80195642     0.14170
H1296       H  0.63927873  0.30203185  0.82760356     0.14170
C1297       C  0.68791064  0.35962132  0.97081215    -0.11900
C1298       C  0.70586152  0.35714057  0.95862402    -0.13450
C1299       C  0.74254686  0.23834958  0.87677119    -0.11970
C1300       C  0.74447824  0.25118404  0.89854268     0.10180
C1301       C  0.74332129  0.23840249  0.92029152    -0.11970
C1302       C  0.74022162  0.21321652  0.92022873    -0.11970
C1303       C  0.73849269  0.20039917  0.89841045     0.10180
C1304       C  0.73973172  0.21321863  0.87670327    -0.11970
H1305       H  0.74328520  0.24773300  0.85974289     0.14170
H1306       H  0.74456314  0.24789100  0.93733720     0.14170
H1307       H  0.73960153  0.20374309  0.93720800     0.14170
H1308       H  0.73861970  0.20380032  0.85960733     0.14170
C1309       C  0.14687522  0.18183743  0.88080711    -0.11970
C1310       C  0.14764527  0.19959727  0.86284780     0.10180
C1311       C  0.16754004  0.20057987  0.84714560    -0.11970
C1312       C  0.18572614  0.18333124  0.84850351    -0.11970
C1313       C  0.18434525  0.16475927  0.86557051     0.10180
C1314       C  0.16512813  0.16450020  0.88215755    -0.11970
H1315       H  0.13169115  0.18072069  0.89312702     0.14170
H1316       H  0.16864918  0.21418263  0.83323407     0.14170
H1317       H  0.20040583  0.18401695  0.83556817     0.14170
H1318       H  0.16364570  0.15031965  0.89545462     0.14170
C1319       C  0.13729560  0.31297031  0.88734023    -0.11970
C1320       C  0.11980272  0.31321622  0.86903044     0.10180
C1321       C  0.12012107  0.33248452  0.85260233    -0.11970
C1322       C  0.13879888  0.34982647  0.85314082    -0.11970
C1323       C  0.15754006  0.34822858  0.87010611     0.10180
C1324       C  0.15594954  0.33026250  0.88786193    -0.11970
H1325       H  0.13762074  0.29838568  0.90025989     0.14170
H1326       H  0.10696412  0.33317510  0.83823722     0.14170
H1327       H  0.13950295  0.36340394  0.83919212     0.14170
H1328       H  0.17007406  0.32849528  0.90118636     0.14170
C1329       C  0.16067068  0.17813631  0.61848479    -0.11970
C1330       C  0.13720213  0.17402571  0.62745567     0.10180
C1331       C  0.13133882  0.15091739  0.63639527    -0.11970
C1332       C  0.14911559  0.13285385  0.63778331    -0.11970
C1333       C  0.17301510  0.13767990  0.63031390     0.10180
C1334       C  0.17831721  0.16024500  0.61992688    -0.11970
H1335       H  0.16581626  0.19568033  0.61143244     0.14170
H1336       H  0.11344246  0.14724977  0.64355319     0.14170
H1337       H  0.14451791  0.11566838  0.64593687     0.14170
H1338       H  0.19650102  0.16453560  0.61387878     0.14170
C1339       C  0.15525152  0.30462063  0.66521812    -0.11970
C1340       C  0.14748297  0.29478212  0.64323258     0.10180
C1341       C  0.15800185  0.30300168  0.62174077    -0.11970
C1342       C  0.17650564  0.32036304  0.62233004    -0.11970
C1343       C  0.18468359  0.32967269  0.64441762     0.10180
C1344       C  0.17367957  0.32189801  0.66580488    -0.11970
H1345       H  0.14728826  0.29875478  0.68203482     0.14170
H1346       H  0.15224613  0.29571107  0.60455733     0.14170
H1347       H  0.18466154  0.32618754  0.60559015     0.14170
H1348       H  0.17947287  0.32898916  0.68306033     0.14170
C1349       C  0.07395878  0.26114288  0.73242486    -0.11970
C1350       C  0.08035675  0.23937664  0.72083603     0.10180
C1351       C  0.08511910  0.21884292  0.73469380    -0.11970
C1352       C  0.08469393  0.22032941  0.75970572    -0.11970
C1353       C  0.07911962  0.24226171  0.77132006     0.10180
C1354       C  0.07313571  0.26251717  0.75752315    -0.11970
H1355       H  0.07012876  0.27723481  0.72210619     0.14170
H1356       H  0.09006403  0.20185863  0.72623296     0.14170
H1357       H  0.08915108  0.20438428  0.76999645     0.14170
H1358       H  0.06878311  0.27960208  0.76611332     0.14170
C1359       C  0.93414554  0.09863063  0.93108220    -0.11900
C1360       C  0.91939504  0.09832128  0.94712742    -0.13450
C1361       C  0.04147648  0.05356235  0.88410014    -0.11900
C1362       C  0.05671212  0.03799191  0.88405110    -0.13450
C1363       C  0.01424241  0.18183982  0.87469640    -0.11900
C1364       C  0.02580143  0.20028394  0.87196096    -0.13450
C1365       C  0.05987742  0.43007825  0.61875054    -0.11900
C1366       C  0.04371916  0.41524843  0.61921665    -0.13450
C1367       C  0.93282997  0.37659614  0.57397291    -0.11900
C1368       C  0.91730273  0.37649745  0.55880602    -0.13450
C1369       C  0.01875337  0.29026593  0.61617643    -0.11900
C1370       C  0.03147349  0.27258987  0.61615797    -0.13450
C1371       C  0.79742602  0.32741912  0.71055429    -0.11970
C1372       C  0.81863057  0.34142446  0.70885418     0.10180
C1373       C  0.82170943  0.35716496  0.68932248    -0.11970
C1374       C  0.80447108  0.35769712  0.67098605    -0.11970
C1375       C  0.78400980  0.34249940  0.67204419     0.10180
C1376       C  0.78027947  0.32795955  0.69233137    -0.11970
H1377       H  0.79452412  0.31527137  0.72551457     0.14170
H1378       H  0.83795581  0.36812688  0.68762659     0.14170
H1379       H  0.80767599  0.36913449  0.65554248     0.14170
H1380       H  0.76451418  0.31627062  0.69372973     0.14170
C1381       C  0.83206672  0.36451269  0.82680058    -0.11970
C1382       C  0.84962050  0.34619324  0.82622453     0.10180
C1383       C  0.85072602  0.32996600  0.84558667    -0.11970
C1384       C  0.83321077  0.33061568  0.86389945    -0.11970
C1385       C  0.81420461  0.34740283  0.86307150     0.10180
C1386       C  0.81450896  0.36505083  0.84496400    -0.11970
H1387       H  0.83069295  0.37730426  0.81219728     0.14170
H1388       H  0.86399819  0.31561660  0.84565647     0.14170
H1389       H  0.83343539  0.31674925  0.87757285     0.14170
H1390       H  0.80016368  0.37827948  0.84385816     0.14170
C1391       C  0.93875717  0.34848040  0.71310119    -0.11900
C1392       C  0.95178445  0.35274568  0.69614309    -0.13450
C1393       C  0.84853055  0.11482526  0.65874445    -0.11970
C1394       C  0.84584205  0.09881914  0.67813718     0.10180
C1395       C  0.82608846  0.08263159  0.67819075    -0.11970
C1396       C  0.80821649  0.08399669  0.66050028    -0.11970
C1397       C  0.80961580  0.10172625  0.64251269     0.10180
C1398       C  0.83052069  0.11634168  0.64113992    -0.11970
H1399       H  0.86350729  0.12757600  0.65823972     0.14170
H1400       H  0.82353169  0.07005823  0.69286101     0.14170
H1401       H  0.79236713  0.07244602  0.66206360     0.14170
H1402       H  0.83214252  0.13015766  0.62749004     0.14170
C1403       C  0.81762078  0.09050385  0.81094845    -0.11970
C1404       C  0.83288397  0.11061969  0.80722304     0.10180
C1405       C  0.83152261  0.13052163  0.82292000    -0.11970
C1406       C  0.81433921  0.13100586  0.84114858    -0.11970
C1407       C  0.79817540  0.11157005  0.84415822     0.10180
C1408       C  0.80033177  0.09095830  0.82942092    -0.11970
H1409       H  0.81846413  0.07489276  0.79911235     0.14170
H1410       H  0.84330467  0.14611720  0.82070500     0.14170
H1411       H  0.81332446  0.14693910  0.85255300     0.14170
H1412       H  0.78808212  0.07571592  0.83155035     0.14170
C1413       C  0.94326293  0.09672128  0.78548601    -0.11900
C1414       C  0.95535902  0.09696947  0.80351673    -0.13450
C1415       C  0.90226050  0.20884280  0.74793889    -0.11970
C1416       C  0.88040403  0.19590357  0.74546336     0.10180
C1417       C  0.85845356  0.20854081  0.74599052    -0.11970
C1418       C  0.85833455  0.23364893  0.74895345    -0.11970
C1419       C  0.88014318  0.24657784  0.75180341     0.10180
C1420       C  0.90212399  0.23397326  0.75124903    -0.11970
H1421       H  0.91943004  0.19948552  0.74779268     0.14170
H1422       H  0.84134880  0.19900274  0.74420463     0.14170
H1423       H  0.84112058  0.24293039  0.74921776     0.14170
H1424       H  0.91918496  0.24354855  0.75319686     0.14170
C1425       C  0.86671948  0.29919570  0.32082783    -0.11970
C1426       C  0.84637045  0.31348613  0.31598378     0.10180
C1427       C  0.82556836  0.31100087  0.33032812    -0.11970
C1428       C  0.82484427  0.29425507  0.34883236    -0.11970
C1429       C  0.84496161  0.27974819  0.35355416     0.10180
C1430       C  0.86605529  0.28246297  0.33963941    -0.11970
H1431       H  0.88302172  0.30092035  0.31009885     0.14170
H1432       H  0.80969801  0.32194735  0.32720400     0.14170
H1433       H  0.80847053  0.29266777  0.35948938     0.14170
H1434       H  0.88177566  0.27137618  0.34301491     0.14170
C1435       C  0.87622608  0.31864699  0.18616970    -0.11970
C1436       C  0.85459849  0.33027802  0.19275539     0.10180
C1437       C  0.83365130  0.32572003  0.17918001    -0.11970
C1438       C  0.83379613  0.30872529  0.16056318    -0.11970
C1439       C  0.85486998  0.29570155  0.15504435     0.10180
C1440       C  0.87635045  0.30141147  0.16744709    -0.11970
H1441       H  0.89262059  0.32178404  0.19637268     0.14170
H1442       H  0.81674700  0.33453024  0.18365494     0.14170
H1443       H  0.81697222  0.30489094  0.15129341     0.14170
H1444       H  0.89283797  0.29159074  0.16364189     0.14170
C1445       C  0.65726153  0.29492662  0.20935896    -0.11970
C1446       C  0.63622750  0.30808920  0.21461939     0.10180
C1447       C  0.61518027  0.30370290  0.20112916    -0.11970
C1448       C  0.61547206  0.28711899  0.18207296    -0.11970
C1449       C  0.63677429  0.27459140  0.17632482     0.10180
C1450       C  0.65751538  0.27829132  0.19042265    -0.11970
H1451       H  0.67376983  0.29801672  0.21940414     0.14170
H1452       H  0.59875204  0.31369891  0.20474567     0.14170
H1453       H  0.59920718  0.28449976  0.17152651     0.14170
H1454       H  0.67417981  0.26885073  0.18638944     0.14170
C1455       C  0.63960732  0.33740546  0.34839172    -0.11970
C1456       C  0.62215101  0.33696026  0.33004305     0.10180
C1457       C  0.60279785  0.32037218  0.33178838    -0.11970
C1458       C  0.60201833  0.30334869  0.35042172    -0.11970
C1459       C  0.62064179  0.30251520  0.36758613     0.10180
C1460       C  0.63889392  0.32035853  0.36689826    -0.11970
H1461       H  0.65474391  0.34994890  0.34763330     0.14170
H1462       H  0.58909308  0.31952765  0.31793109     0.14170
H1463       H  0.58777119  0.28978132  0.35038029     0.14170
H1464       H  0.65350848  0.32023452  0.37982906     0.14170
C1465       C  0.73085792  0.38781956  0.24050052    -0.11970
C1466       C  0.71785089  0.38684140  0.26219865     0.10180
C1467       C  0.73044537  0.38735292  0.28404451    -0.11970
C1468       C  0.75574349  0.38709248  0.28413296    -0.11970
C1469       C  0.76876058  0.38693086  0.26238468     0.10180
C1470       C  0.75613239  0.38816943  0.24059635    -0.11970
H1471       H  0.72146678  0.38751249  0.22343772     0.14170
H1472       H  0.72076285  0.38648288  0.30097944     0.14170
H1473       H  0.76511177  0.38615678  0.30117309     0.14170
H1474       H  0.76575101  0.38794442  0.22360694     0.14170
C1475       C  0.61089436  0.42172909  0.08180052    -0.11900
C1476       C  0.61090309  0.40669357  0.06595925    -0.13450
C1477       C  0.61204119  0.44352359  0.20225704    -0.11900
C1478       C  0.61392146  0.43011144  0.21923236    -0.13450
C1479       C  0.87249924  0.42722615  0.43348052    -0.11900
C1480       C  0.87198435  0.41229288  0.44921019    -0.13450
C1481       C  0.87566777  0.43004027  0.29717081    -0.11900
C1482       C  0.87706877  0.44396550  0.31392033    -0.13450
C1483       C  0.78117513  0.53211929  0.38886092    -0.11900
C1484       C  0.79905533  0.51970282  0.39003263    -0.13450
C1485       C  0.70459924  0.53091896  0.12961139    -0.11900
C1486       C  0.68699563  0.51792015  0.12798960    -0.13450
C1487       C  0.72400822  0.58260153  0.24694646    -0.11970
C1488       C  0.74551014  0.58582743  0.23374711     0.10180
C1489       C  0.76757786  0.58794244  0.24601655    -0.11970
C1490       C  0.76800938  0.58780870  0.27111708    -0.11970
C1491       C  0.74643754  0.58510565  0.28431459     0.10180
C1492       C  0.72449312  0.58203442  0.27202153    -0.11970
H1493       H  0.70675364  0.58082687  0.23788506     0.14170
H1494       H  0.78438398  0.59046758  0.23624625     0.14170
H1495       H  0.78517891  0.59016706  0.28021636     0.14170
H1496       H  0.70761635  0.58003793  0.28179382     0.14170
C1497       C  0.65930972  0.67342686  0.12811226    -0.11970
C1498       C  0.64649719  0.67966920  0.14906585     0.10180
C1499       C  0.65146246  0.66757458  0.17058152    -0.11970
C1500       C  0.66955156  0.65017371  0.17138304    -0.11970
C1501       C  0.68299849  0.64453392  0.15068102     0.10180
C1502       C  0.67745669  0.65594667  0.12891349    -0.11970
H1503       H  0.65570925  0.68244269  0.11127603     0.14170
H1504       H  0.64163274  0.67183943  0.18692500     0.14170
H1505       H  0.67325454  0.64139682  0.18832405     0.14170
H1506       H  0.68751395  0.65179366  0.11268283     0.14170
C1507       C  0.64346850  0.65502667  0.37893286    -0.11970
C1508       C  0.64353564  0.67249679  0.36056530     0.10180
C1509       C  0.66251504  0.67235609  0.34372301    -0.11970
C1510       C  0.68133855  0.65596922  0.34551801    -0.11970
C1511       C  0.68186241  0.63890658  0.36408847     0.10180
C1512       C  0.66249841  0.63816929  0.38059270    -0.11970
H1513       H  0.62906797  0.65471550  0.39217353     0.14170
H1514       H  0.66320941  0.68536477  0.32923741     0.14170
H1515       H  0.69573441  0.65685136  0.33226964     0.14170
H1516       H  0.66243788  0.62513064  0.39504477     0.14170
C1517       C  0.57648219  0.71606510  0.23851990    -0.11970
C1518       C  0.57935634  0.73817729  0.22639929     0.10180
C1519       C  0.58071336  0.75975361  0.23977642    -0.11970
C1520       C  0.58073871  0.75907225  0.26487602    -0.11970
C1521       C  0.57911478  0.73683096  0.27698667     0.10180
C1522       C  0.57621926  0.71541059  0.26360333    -0.11970
H1523       H  0.57525002  0.69916001  0.22861279     0.14170
H1524       H  0.58291782  0.77702425  0.23087733     0.14170
H1525       H  0.58288427  0.77588514  0.27479360     0.14170
H1526       H  0.57494115  0.69804310  0.27248077     0.14170
C1527       C  0.43976614  0.86720482  0.43492581    -0.11900
C1528       C  0.42498668  0.86704232  0.45095244    -0.13450
C1529       C  0.51949907  0.78421423  0.38332083    -0.11900
C1530       C  0.53202568  0.76641454  0.38229728    -0.13450
C1531       C  0.33207106  0.63932118  0.17189407    -0.11970
C1532       C  0.33475637  0.61902691  0.18661525     0.10180
C1533       C  0.31983223  0.59865062  0.18306446    -0.11970
C1534       C  0.30144631  0.59924233  0.16579962    -0.11970
C1535       C  0.29806712  0.62015272  0.15194741     0.10180
C1536       C  0.31398080  0.63985484  0.15469193    -0.11970
H1537       H  0.34369068  0.65507261  0.17403221     0.14170
H1538       H  0.32173332  0.58279133  0.19424298     0.14170
H1539       H  0.28943710  0.58377455  0.16385050     0.14170
H1540       H  0.31207065  0.65602853  0.14395837     0.14170
C1541       C  0.33202001  0.61227129  0.34726433    -0.11970
C1542       C  0.31041573  0.59938025  0.34284834     0.10180
C1543       C  0.30773337  0.58727213  0.32071570    -0.11970
C1544       C  0.32536828  0.58943197  0.30278378    -0.11970
C1545       C  0.34614407  0.60380338  0.30648227     0.10180
C1546       C  0.34972515  0.61449140  0.32921502    -0.11970
H1547       H  0.33455370  0.62191294  0.36407397     0.14170
H1548       H  0.29132435  0.57719564  0.31670930     0.14170
H1549       H  0.32206275  0.58087557  0.28552865     0.14170
H1550       H  0.36554085  0.62567846  0.33260729     0.14170
C1551       C  0.32842425  0.85472561  0.31494042    -0.11970
C1552       C  0.33997274  0.83351462  0.30703616     0.10180
C1553       C  0.33429330  0.81137427  0.31795594    -0.11970
C1554       C  0.31682531  0.81025080  0.33593374    -0.11970
C1555       C  0.30460872  0.83123593  0.34332418     0.10180
C1556       C  0.31077935  0.85358508  0.33298843    -0.11970
H1557       H  0.33261135  0.87203069  0.30680704     0.14170
H1558       H  0.34312384  0.79479547  0.31238005     0.14170
H1559       H  0.31257862  0.79280091  0.34373686     0.14170
H1560       H  0.30163176  0.87001384  0.33846385     0.14170
C1561       C  0.32320705  0.86389379  0.19325501    -0.11970
C1562       C  0.34567427  0.85347578  0.18761401     0.10180
C1563       C  0.34956729  0.84481074  0.16407680    -0.11970
C1564       C  0.33072193  0.84509058  0.14708769    -0.11970
C1565       C  0.30773965  0.85397152  0.15346165     0.10180
C1566       C  0.30452991  0.86409743  0.17646059    -0.11970
H1567       H  0.31959228  0.87084531  0.21114226     0.14170
H1568       H  0.36664771  0.83656116  0.15923859     0.14170
H1569       H  0.33368793  0.83708051  0.12952937     0.14170
H1570       H  0.28712079  0.87123881  0.18191997     0.14170
C1571       C  0.46372049  0.86263452  0.30432335    -0.11900
C1572       C  0.45240772  0.86146949  0.28580124    -0.13450
C1573       C  0.40641918  0.74243877  0.26639704    -0.11970
C1574       C  0.40004191  0.75527591  0.24559474     0.10180
C1575       C  0.39311471  0.74236610  0.22494715    -0.11970
C1576       C  0.39147683  0.71715411  0.22541063    -0.11970
C1577       C  0.39714933  0.70432613  0.24638717     0.10180
C1578       C  0.40522278  0.71710781  0.26671171    -0.11970
H1579       H  0.41185776  0.75200707  0.28256751     0.14170
H1580       H  0.38804830  0.75178646  0.20871955     0.14170
H1581       H  0.38546176  0.70767548  0.20938415     0.14170
H1582       H  0.40976268  0.70760168  0.28304080     0.14170
C1583       C  0.43936584  0.59894619  0.06324558    -0.11900
C1584       C  0.42331175  0.59905709  0.04853827    -0.13450
C1585       C  0.55189682  0.55292416  0.11675142    -0.11900
C1586       C  0.56696884  0.53741036  0.11935998    -0.13450
C1587       C  0.53578622  0.69847760  0.11629836    -0.11900
C1588       C  0.52449359  0.67986291  0.11348616    -0.13450
C1589       C  0.46280473  0.59775249  0.18749239    -0.11900
C1590       C  0.44987271  0.59978345  0.20488349    -0.13450
C1591       C  0.15825267  0.59777234  0.18299210    -0.11970
C1592       C  0.13714140  0.61156596  0.18027774     0.10180
C1593       C  0.13350112  0.62376833  0.15847344    -0.11970
C1594       C  0.15149599  0.62361156  0.14053063    -0.11970
C1595       C  0.17342056  0.61135277  0.14420771     0.10180
C1596       C  0.17616292  0.59773108  0.16524512    -0.11970
H1597       H  0.16162606  0.58807580  0.19949644     0.14170
H1598       H  0.11747519  0.63463080  0.15589634     0.14170
H1599       H  0.14892840  0.63435866  0.12454262     0.14170
H1600       H  0.19277466  0.58800078  0.16859190     0.14170
C1601       C  0.14601655  0.63136707  0.32488795    -0.11970
C1602       C  0.14373273  0.61399206  0.30655492     0.10180
C1603       C  0.15893347  0.59370073  0.30643355    -0.11970
C1604       C  0.17744633  0.59187193  0.32339406    -0.11970
C1605       C  0.18081122  0.61029726  0.34059103     0.10180
C1606       C  0.16436793  0.62952104  0.34177591    -0.11970
H1607       H  0.13426980  0.64699327  0.32555870     0.14170
H1608       H  0.15740670  0.58003507  0.29246892     0.14170
H1609       H  0.18985003  0.57679227  0.32225673     0.14170
H1610       H  0.16633185  0.64376044  0.35511126     0.14170
C1611       C  0.14785886  0.83443967  0.18091410    -0.11970
C1612       C  0.15025157  0.85070367  0.20019970     0.10180
C1613       C  0.16851630  0.86850369  0.19965007    -0.11970
C1614       C  0.18539732  0.86865385  0.18080273    -0.11970
C1615       C  0.18396735  0.85102455  0.16252691     0.10180
C1616       C  0.16454193  0.83460120  0.16225936    -0.11970
H1617       H  0.13358896  0.82087922  0.18072015     0.14170
H1618       H  0.17054129  0.88128691  0.21435625     0.14170
H1619       H  0.20027030  0.88153464  0.18124991     0.14170
H1620       H  0.16282617  0.82113485  0.14812136     0.14170
C1621       C  0.13893614  0.83378815  0.34711907    -0.11970
C1622       C  0.14096288  0.85064957  0.32835458     0.10180
C1623       C  0.16080663  0.86671720  0.32825137    -0.11970
C1624       C  0.17931319  0.86450670  0.34514359    -0.11970
C1625       C  0.17841279  0.84619548  0.36256197     0.10180
C1626       C  0.15751881  0.83158017  0.36409848    -0.11970
H1627       H  0.12392024  0.82108612  0.34762056     0.12400
H1628       H  0.16288386  0.87995708  0.31409901     0.14170
H1629       H  0.19509468  0.87614946  0.34355463     0.14170
H1630       H  0.15632567  0.81727877  0.37728814     0.14170
C1631       C  0.08034750  0.74664960  0.25466711    -0.11970
C1632       C  0.10247762  0.75878832  0.25821133     0.10180
C1633       C  0.12410658  0.74559995  0.25713118    -0.11970
C1634       C  0.12359523  0.72064259  0.25288509    -0.11970
C1635       C  0.10148229  0.70853282  0.24913011     0.10180
C1636       C  0.07986899  0.72176323  0.24994847    -0.11970
H1637       H  0.06344274  0.75647203  0.25510627     0.14170
H1638       H  0.14141634  0.75457650  0.25964547     0.14170
H1639       H  0.14050157  0.71082071  0.25248134     0.14170
H1640       H  0.06256403  0.71279451  0.24738343     0.14170
C1641       C  0.05069341  0.86667351  0.07737480    -0.11900
C1642       C  0.06539426  0.86584410  0.06125296    -0.13450
C1643       C  0.04120889  0.86317078  0.22341068    -0.11900
C1644       C  0.02903385  0.86589910  0.20564231    -0.13450
C1645       C  0.05156458  0.60117331  0.42489817    -0.11900
C1646       C  0.06761856  0.60065343  0.43956441    -0.13450
C1647       C  0.93703840  0.55721386  0.38346475    -0.11900
C1648       C  0.92133758  0.54189342  0.38399544    -0.13450
C1649       C  0.02163249  0.60664862  0.30146405    -0.11900
C1650       C  0.03366512  0.60822075  0.28336649    -0.13450
C1651       C  0.84837315  0.64704482  0.14866784    -0.11970
C1652       C  0.84564644  0.66912772  0.13651188     0.10180
C1653       C  0.82422516  0.67299640  0.12352275    -0.11970
C1654       C  0.80527514  0.65610000  0.12419256    -0.11970
C1655       C  0.80741951  0.63464903  0.13743920     0.10180
C1656       C  0.82950924  0.62983141  0.14891303    -0.11970
H1657       H  0.86455796  0.64362699  0.15900825     0.14170
H1658       H  0.82137828  0.68988857  0.11418078     0.14170
H1659       H  0.78847901  0.66034182  0.11518322     0.14170
H1660       H  0.83160198  0.61353670  0.15941013     0.14170
C1661       C  0.94678748  0.77565780  0.13500261    -0.11900
C1662       C  0.96072298  0.79245283  0.13277519    -0.13450
C1663       C  0.84451777  0.65835431  0.36340453    -0.11970
C1664       C  0.84167686  0.67873093  0.37819855     0.10180
C1665       C  0.82237827  0.67966569  0.39463080    -0.11970
C1666       C  0.80475953  0.66131971  0.39451616    -0.11970
C1667       C  0.80657827  0.64197428  0.37809215     0.10180
C1668       C  0.82719255  0.64005439  0.36344311    -0.11970
H1669       H  0.85955473  0.65716740  0.35090517     0.14170
H1670       H  0.82000200  0.69531337  0.40621115     0.14170
H1671       H  0.78904351  0.66305964  0.40607230     0.14170
H1672       H  0.82925736  0.62508122  0.35095634     0.14170
C1673       C  0.95120414  0.70127506  0.38305576    -0.11900
C1674       C  0.96369140  0.68340491  0.38384252    -0.13450
C1675       C  0.86570445  0.74487478  0.27250199    -0.11970
C1676       C  0.88763240  0.74431636  0.28509720     0.10180
C1677       C  0.90938837  0.74117810  0.27232876    -0.11970
C1678       C  0.90910801  0.73812330  0.24733126    -0.11970
C1679       C  0.88710577  0.73864570  0.23478460     0.10180
C1680       C  0.86546697  0.74231755  0.24757737    -0.11970
H1681       H  0.84869695  0.74717162  0.28195973     0.14170
H1682       H  0.92650031  0.74039761  0.28173668     0.14170
H1683       H  0.92603746  0.73553411  0.23782096     0.14170
H1684       H  0.84825340  0.74288640  0.23832913     0.14170
C1685       C  0.82845733  0.14319719  0.19306015    -0.11970
C1686       C  0.84904150  0.13999643  0.20735256     0.10180
C1687       C  0.86962670  0.15450799  0.20339548    -0.11970
C1688       C  0.86941126  0.17227411  0.18559532    -0.11970
C1689       C  0.84865297  0.17558873  0.17151031     0.10180
C1690       C  0.82828191  0.16077128  0.17529344    -0.11970
H1691       H  0.81239788  0.13213800  0.19563731     0.14170
H1692       H  0.88571010  0.15233872  0.21423378     0.14170
H1693       H  0.88538675  0.18341528  0.18289995     0.14170
H1694       H  0.81209158  0.16280889  0.16457895     0.14170
C1695       C  0.85382526  0.12378163  0.35097451    -0.11970
C1696       C  0.86119788  0.13022099  0.32760569     0.10180
C1697       C  0.86864737  0.15419544  0.32337168    -0.11970
C1698       C  0.86718552  0.17168347  0.34144210    -0.11970
C1699       C  0.85833096  0.16576809  0.36437919     0.10180
C1700       C  0.85245386  0.14145408  0.36928497    -0.11970
H1701       H  0.84789921  0.10545986  0.35474715     0.14170
H1702       H  0.87451247  0.15981988  0.30565427     0.14170
H1703       H  0.87203810  0.19019009  0.33706680     0.14170
H1704       H  0.84552135  0.13639321  0.38678063     0.14170
C1705       C  0.63555407  0.12350453  0.16552486    -0.11970
C1706       C  0.61973651  0.12584423  0.18525041     0.10180
C1707       C  0.60260002  0.14454948  0.18510451    -0.11970
C1708       C  0.60282444  0.16187721  0.16687235    -0.11970
C1709       C  0.62018425  0.16089351  0.14836641     0.10180
C1710       C  0.63577130  0.14087863  0.14723045    -0.11970
H1711       H  0.64899090  0.10931118  0.16512707     0.14170
H1712       H  0.59012066  0.14683061  0.19998513     0.14170
H1713       H  0.59051223  0.17701553  0.16824290     0.14170
H1714       H  0.64938016  0.13962800  0.13323718     0.14170
C1715       C  0.65272131  0.16967737  0.30729572    -0.11970
C1716       C  0.63282874  0.15412129  0.30374363     0.10180
C1717       C  0.61210017  0.15686553  0.31813880    -0.11970
C1718       C  0.61161260  0.17430869  0.33637672    -0.11970
C1719       C  0.63192192  0.18913261  0.34061375     0.10180
C1720       C  0.65230726  0.18698243  0.32564829    -0.11970
H1721       H  0.66892347  0.16793657  0.29642898     0.14170
H1722       H  0.59649317  0.14513884  0.31569856     0.14170
H1723       H  0.59566842  0.17561024  0.34767645     0.14170
H1724       H  0.66817993  0.19824628  0.32851114     0.14170
C1725       C  0.73034271  0.07737343  0.23857376    -0.11970
C1726       C  0.71651967  0.08371084  0.25881525     0.10180
C1727       C  0.72815169  0.08732303  0.28099357    -0.11970
C1728       C  0.75326387  0.08527008  0.28276519    -0.11970
C1729       C  0.76717920  0.07985552  0.26232548     0.10180
C1730       C  0.75547787  0.07560566  0.24028179    -0.11970
H1731       H  0.72180884  0.07443386  0.22129173     0.14170
H1732       H  0.71786783  0.09205028  0.29692602     0.14170
H1733       H  0.76184419  0.08871852  0.29993404     0.14170
H1734       H  0.76580155  0.07139547  0.22422934     0.14170
C1735       C  0.92806725  0.93344264  0.12568697    -0.11900
C1736       C  0.94388019  0.91844573  0.12559246    -0.13450
C1737       C  0.87724682  0.03907917  0.08089697    -0.11900
C1738       C  0.87676076  0.05389937  0.06504378    -0.13450
C1739       C  0.87406819  0.02555356  0.22681689    -0.11900
C1740       C  0.87544794  0.01375398  0.20852337    -0.13450
C1741       C  0.60238591  0.05240783  0.45356244    -0.11900
C1742       C  0.60346864  0.03740108  0.43777577    -0.13450
C1743       C  0.54558904  0.91244915  0.38688303    -0.11900
C1744       C  0.56097441  0.92806133  0.38706705    -0.13450
C1745       C  0.61140864  0.02022319  0.31249159    -0.11900
C1746       C  0.61348512  0.03283799  0.29492939    -0.13450
C1747       C  0.66881352  0.82538635  0.34486734    -0.11970
C1748       C  0.68416607  0.82683429  0.36484837     0.10180
C1749       C  0.68013411  0.81145085  0.38448067    -0.11970
C1750       C  0.66157643  0.79409641  0.38360689    -0.11970
C1751       C  0.64677261  0.79216804  0.36318526     0.10180
C1752       C  0.65025364  0.80830645  0.34408378    -0.11970
H1753       H  0.67133239  0.83728963  0.32964429     0.14170
H1754       H  0.69172797  0.81236693  0.40012623     0.14170
H1755       H  0.65918226  0.78187168  0.39858419     0.14170
H1756       H  0.63900547  0.80736351  0.32818823     0.14170
C1757       C  0.83052860  0.84379159  0.37080795    -0.11970
C1758       C  0.80783444  0.83864571  0.38123327     0.10180
C1759       C  0.80479358  0.81674657  0.39364305    -0.11970
C1760       C  0.82331757  0.79967177  0.39421524    -0.11970
C1761       C  0.84538831  0.80390646  0.38223718     0.10180
C1762       C  0.84914058  0.82651856  0.37123775    -0.11970
H1763       H  0.83338117  0.86047145  0.36103747     0.14170
H1764       H  0.78759515  0.81224031  0.40195778     0.14170
H1765       H  0.81976865  0.78249888  0.40289604     0.14170
H1766       H  0.86587936  0.83028345  0.36174904     0.14170
C1767       C  0.70467839  0.94084202  0.38794976    -0.11900
C1768       C  0.68660387  0.95303558  0.38880941    -0.13450
C1769       C  0.67752532  0.81687307  0.12223460    -0.11970
C1770       C  0.67376103  0.83870551  0.13481020     0.10180
C1771       C  0.65108411  0.84256148  0.14574914    -0.11970
C1772       C  0.63313018  0.82435345  0.14525287    -0.11970
C1773       C  0.63771873  0.80188907  0.13412393     0.10180
C1774       C  0.65984343  0.79867988  0.12204936    -0.11970
H1775       H  0.69477047  0.81318229  0.11368728     0.14170
H1776       H  0.64768031  0.85910048  0.15570639     0.14170
H1777       H  0.61630200  0.82727716  0.15484247     0.14170
H1778       H  0.66393848  0.78161727  0.11327906     0.14170
C1779       C  0.78602698  0.79815479  0.15505039    -0.11970
C1780       C  0.78961566  0.81974443  0.14238063     0.10180
C1781       C  0.81049049  0.82266463  0.12816393    -0.11970
C1782       C  0.82833350  0.80479109  0.12804519    -0.11970
C1783       C  0.82534234  0.78397904  0.14215865     0.10180
C1784       C  0.80372124  0.78045234  0.15494815    -0.11970
H1785       H  0.76990845  0.79531085  0.16583724     0.14170
H1786       H  0.81354999  0.83919037  0.11818110     0.14170
H1787       H  0.84492318  0.80782013  0.11803756     0.14170
H1788       H  0.80086805  0.76438099  0.16568831     0.14170
C1789       C  0.78034567  0.93997980  0.13298690    -0.11900
C1790       C  0.79841942  0.95228187  0.13111178    -0.13450
C1791       C  0.72067896  0.88912283  0.27201105    -0.11970
C1792       C  0.74270652  0.88518962  0.28395030     0.10180
C1793       C  0.76372786  0.88112671  0.27036264    -0.11970
C1794       C  0.76258327  0.88018141  0.24530079    -0.11970
C1795       C  0.74047442  0.88365599  0.23338730     0.10180
C1796       C  0.71961331  0.88856127  0.24692670    -0.11970
H1797       H  0.70418890  0.89233830  0.28207884     0.14170
H1798       H  0.78090819  0.87800591  0.27910979     0.14170
H1799       H  0.77898918  0.87656489  0.23523029     0.14170
H1800       H  0.70237796  0.89131757  0.23815893     0.14170
loop_ 
_geom_bond_atom_site_label_1 
_geom_bond_atom_site_label_2 
_geom_bond_distance 
_geom_bond_site_symmetry_2 
_ccdc_geom_bond_type 
O1            C4   1.264       .  A
O1           Cd6   2.398       .  S
C2           O11   1.270       .  A
C2            O7   1.264       .  A
C2         C1795   1.474       .  S
O3            C9   1.268       .  A
O3           Cd6   2.528       .  S
C4           O12   1.266       .  A
C4         C1780   1.466       .  S
C5           O10   1.269       .  A
C5            O8   1.263       .  A
C5         C1770   1.488       .  S
Cd6          O13   2.417       .  S
Cd6          O12   2.467       .  S
Cd6          O11   2.475       .  S
Cd6           O7   2.423       .  S
Cd6          O10   2.524       .  S
Cd6           O8   2.442       .  S
C9           O13   1.257       .  A
C9         C1789   1.437       .  S
O14          C17   1.264       .  A
O14         Cd19   2.409       .  S
C15          O24   1.268       .  A
C15          O20   1.263       .  A
C15        C1792   1.475       .  S
O16          C22   1.260       .  A
O16         Cd19   2.470       .  S
C17          O25   1.267       .  A
C17        C1748   1.468       .  S
C18          O23   1.268       .  A
C18          O21   1.262       .  A
C18        C1758   1.486       .  S
Cd19         O26   2.482       .  S
Cd19         O25   2.472       .  S
Cd19         O24   2.484       .  S
Cd19         O20   2.433       .  S
Cd19         O23   2.529       .  S
Cd19         O21   2.448       .  S
C22          O26   1.262       .  A
C22        C1767   1.438       .  S
O27          C30   1.263       .  A
O27         Cd32   2.492       .  S
C28          O37   1.263       .  A
C28          O33   1.263       .  A
C28        C1742   1.435       .  S
O29          C35   1.263   1_565  A
O29         Cd32   2.493       .  S
C30          O38   1.264       .  A
C30        C1768   1.441       .  S
C31          O36   1.263       .  A
C31          O34   1.264       .  A
C31        C1744   1.436       .  S
Cd32         O39   2.467   1_565  S
Cd32         O38   2.473       .  S
Cd32         O37   2.479   1_565  S
Cd32         O33   2.458   1_565  S
Cd32         O36   2.466       .  S
Cd32         O34   2.480       .  S
C35          O39   1.263       .  A
C35        C1745   1.440       .  S
O40          C43   1.264       .  A
O40         Cd45   2.474       .  S
C41          O50   1.263       .  A
C41          O46   1.262   1_545  A
C41        C1740   1.439       .  S
O42          C48   1.264   1_565  A
O42         Cd45   2.468       .  S
C43          O51   1.264       .  A
C43        C1735   1.438       .  S
C44          O49   1.262       .  A
C44          O47   1.263       .  A
C44        C1790   1.440       .  S
Cd45         O52   2.477   1_565  S
Cd45         O51   2.473       .  S
Cd45         O50   2.468   1_565  S
Cd45         O46   2.499       .  S
Cd45         O49   2.502       .  S
Cd45         O47   2.469       .  S
C48          O52   1.264       .  A
C48        C1737   1.437       .  S
O53          C56   1.266       .  A
O53         Cd58   2.431       .  S
C54          O63   1.265       .  A
C54          O59   1.265       .  A
C54        C1716   1.471       .  S
O55          C61   1.265       .  A
O55         Cd58   2.503       .  S
C56          O64   1.269       .  A
C56        C1726   1.473       .  S
C57          O62   1.263       .  A
C57          O60   1.259       .  A
C57        C1746   1.437       .  S
Cd58         O65   2.469       .  S
Cd58         O64   2.459       .  S
Cd58         O63   2.449       .  S
Cd58         O59   2.444       .  S
Cd58         O62   2.499       .  S
Cd58         O60   2.461       .  S
C61          O65   1.262       .  A
C61        C1706   1.484       .  S
O66          C69   1.264       .  A
O66         Cd71   2.411       .  S
C67          O76   1.268       .  A
C67          O72   1.263       .  A
C67        C1729   1.473       .  S
O68          C74   1.261       .  A
O68         Cd71   2.463       .  S
C69          O77   1.267       .  A
C69        C1686   1.468       .  S
C70          O75   1.269       .  A
C70          O73   1.262       .  A
C70        C1696   1.485       .  S
Cd71         O78   2.479       .  S
Cd71         O77   2.465       .  S
Cd71         O76   2.475       .  S
Cd71         O72   2.429       .  S
Cd71         O75   2.534       .  S
Cd71         O73   2.421       .  S
C74          O78   1.262       .  A
C74        C1739   1.436       .  S
O79          C82   1.266       .  A
O79         Cd84   2.426       .  S
C80          O89   1.266       .  A
C80          O85   1.264       .  A
C80        C1664   1.461       .  S
O81          C87   1.270       .  A
O81         Cd84   2.539       .  S
C82          O90   1.268       .  A
C82        C1676   1.472       .  S
C83          O88   1.270       .  A
C83          O86   1.263       .  A
C83        C1761   1.487       .  S
Cd84         O91   2.397       .  S
Cd84         O90   2.466       .  S
Cd84         O89   2.475       .  S
Cd84         O85   2.393       .  S
Cd84         O88   2.525       .  S
Cd84         O86   2.434       .  S
C87          O91   1.256       .  A
C87        C1673   1.437       .  S
O92          C95   1.262       .  A
O92         Cd97   2.417       .  S
C93         O102   1.267       .  A
C93          O98   1.264       .  A
C93        C1783   1.465       .  S
O94         C100   1.270       .  A
O94         Cd97   2.527       .  S
C95         O103   1.268       .  A
C95        C1679   1.473       .  S
C96         O101   1.268       .  A
C96          O99   1.264       .  A
C96        C1652   1.486       .  S
Cd97        O104   2.407       .  S
Cd97        O103   2.489       .  S
Cd97        O102   2.473       .  S
Cd97         O98   2.386       .  S
Cd97        O101   2.503       .  S
Cd97         O99   2.455       .  S
C100        O104   1.259       .  A
C100       C1661   1.437       .  S
O105        C108   1.264       .  A
O105       Cd110   2.479       .  S
C106        O115   1.264       .  A
C106        O111   1.263   1_455  A
C106       C1649   1.440       .  S
O107        C113   1.263       .  A
O107       Cd110   2.503       .  S
C108        O116   1.263       .  A
C108       C1647   1.439       .  S
C109        O114   1.264       .  A
C109        O112   1.263       .  A
C109       C1645   1.438       .  S
Cd110       O117   2.465       .  S
Cd110       O116   2.478       .  S
Cd110       O115   2.463   1_655  S
Cd110       O111   2.500       .  S
Cd110       O114   2.476   1_655  S
Cd110       O112   2.478   1_655  S
C113        O117   1.264       .  A
C113       C1674   1.441       .  S
O118        C121   1.263       .  A
O118       Cd123   2.479   1_455  S
C119        O128   1.263       .  A
C119        O124   1.264       .  A
C119       C1662   1.439       .  S
O120        C126   1.263       .  A
O120       Cd123   2.503   1_455  S
C121        O129   1.264       .  A
C121       C1641   1.440       .  S
C122        O127   1.264       .  A
C122        O125   1.263       .  A
C122       C1736   1.438       .  S
Cd123       O130   2.464   1_655  S
Cd123       O129   2.486   1_655  S
Cd123       O128   2.458       .  S
Cd123       O124   2.499       .  S
Cd123       O127   2.484       .  S
Cd123       O125   2.469       .  S
C126        O130   1.263       .  A
C126       C1644   1.440       .  S
O131        C134   1.261       .  A
O131       Cd136   2.389       .  S
C132        O141   1.270       .  A
C132        O137   1.267       .  A
C132       C1632   1.474       .  S
O133        C139   1.268       .  A
O133       Cd136   2.504       .  S
C134        O142   1.265       .  A
C134       C1612   1.465       .  S
C135        O140   1.267       .  A
C135        O138   1.256       .  A
C135       C1643   1.437       .  S
Cd136       O143   2.448       .  S
Cd136       O142   2.492       .  S
Cd136       O141   2.454       .  S
Cd136       O137   2.435       .  S
Cd136       O140   2.525       .  S
Cd136       O138   2.420       .  S
C139        O143   1.263       .  A
C139       C1622   1.484       .  S
O144        C147   1.263       .  A
O144       Cd149   2.414       .  S
C145        O154   1.269       .  A
C145        O150   1.267       .  A
C145       C1635   1.474       .  S
O146        C152   1.268       .  A
O146       Cd149   2.533       .  S
C147        O155   1.265       .  A
C147       C1602   1.467       .  S
C148        O153   1.265       .  A
C148        O151   1.258       .  A
C148       C1650   1.437       .  S
Cd149       O156   2.433       .  S
Cd149       O155   2.467       .  S
Cd149       O154   2.456       .  S
Cd149       O150   2.440       .  S
Cd149       O153   2.506       .  S
Cd149       O151   2.441       .  S
C152        O156   1.261       .  A
C152       C1592   1.485       .  S
O157        C160   1.264       .  A
O157       Cd162   2.495       .  S
C158        O167   1.264       .  A
C158        O163   1.264       .  A
C158       C1585   1.439       .  S
O159        C165   1.263       .  A
O159       Cd162   2.489       .  S
C160        O168   1.264       .  A
C160       C1589   1.437       .  S
C161        O166   1.263       .  A
C161        O164   1.262       .  A
C161       C1588   1.440       .  S
Cd162       O169   2.479       .  S
Cd162       O168   2.447       .  S
Cd162       O167   2.476       .  S
Cd162       O163   2.477       .  S
Cd162       O166   2.502       .  S
Cd162       O164   2.469       .  S
C165        O169   1.262       .  A
C165       C1583   1.440       .  S
O170        C173   1.264       .  A
O170       Cd175   2.440       .  S
C171        O180   1.266       .  A
C171        O176   1.264       .  A
C171       C1552   1.468       .  S
O172        C178   1.260       .  A
O172       Cd175   2.462       .  S
C173        O181   1.269       .  A
C173       C1574   1.475       .  S
C174        O179   1.269       .  A
C174        O177   1.261       .  A
C174       C1562   1.486       .  S
Cd175       O182   2.482       .  S
Cd175       O181   2.473       .  S
Cd175       O180   2.460       .  S
Cd175       O176   2.416       .  S
Cd175       O179   2.540       .  S
Cd175       O177   2.431       .  S
C178        O182   1.262       .  A
C178       C1572   1.437       .  S
O183        C186   1.263       .  A
O183       Cd188   2.409       .  S
C184        O193   1.267       .  A
C184        O189   1.263       .  A
C184       C1532   1.465       .  S
O185        C191   1.267       .  A
O185       Cd188   2.538       .  S
C186        O194   1.270       .  A
C186       C1577   1.474       .  S
C187        O192   1.268       .  A
C187        O190   1.263       .  A
C187       C1545   1.485       .  S
Cd188       O195   2.402       .  S
Cd188       O194   2.499       .  S
Cd188       O193   2.482       .  S
Cd188       O189   2.388       .  S
Cd188       O192   2.512       .  S
Cd188       O190   2.449       .  S
C191        O195   1.254       .  A
C191       C1590   1.433       .  S
O196        C199   1.263       .  A
O196       Cd201   2.467       .  S
C197        O206   1.263       .  A
C197        O202   1.262       .  A
C197       C1529   1.438       .  S
O198        C204   1.261       .  A
O198       Cd201   2.501       .  S
C199        O207   1.265       .  A
C199       C1527   1.437       .  S
C200        O205   1.265       .  A
C200        O203   1.264       .  A
C200       C1743   1.436       .  S
Cd201       O208   2.474       .  S
Cd201       O207   2.476       .  S
Cd201       O206   2.458       .  S
Cd201       O202   2.500       .  S
Cd201       O205   2.467       .  S
Cd201       O203   2.466       .  S
C204        O208   1.263       .  A
C204       C1571   1.440       .  S
O209        C212   1.264       .  A
O209       Cd214   2.406       .  S
C210        O219   1.270       .  A
C210        O215   1.265       .  A
C210       C1521   1.474       .  S
O211        C217   1.271       .  A
O211       Cd214   2.556       .  S
C212        O220   1.267       .  A
C212       C1751   1.470       .  S
C213        O218   1.264       .  A
C213        O216   1.262       .  A
C213       C1530   1.434       .  S
Cd214       O221   2.389       .  S
Cd214       O220   2.471       .  S
Cd214       O219   2.469       .  S
Cd214       O215   2.426       .  S
Cd214       O218   2.473       .  S
Cd214       O216   2.446       .  S
C217        O221   1.260       .  A
C217       C1508   1.485       .  S
O222        C225   1.264       .  A
O222       Cd227   2.429       .  S
C223        O232   1.266       .  A
C223        O228   1.265       .  A
C223       C1498   1.470       .  S
O224        C230   1.261       .  A
O224       Cd227   2.476       .  S
C225        O233   1.269       .  A
C225       C1518   1.475       .  S
C226        O231   1.268       .  A
C226        O229   1.262       .  A
C226       C1773   1.485       .  S
Cd227       O234   2.478       .  S
Cd227       O233   2.479       .  S
Cd227       O232   2.456       .  S
Cd227       O228   2.427       .  S
Cd227       O231   2.535       .  S
Cd227       O229   2.445       .  S
C230        O234   1.261       .  A
C230       C1587   1.437       .  S
O235        C238   1.265       .  A
O235       Cd240   2.425       .  S
C236        O245   1.268       .  A
C236        O241   1.264       .  A
C236       C1488   1.473       .  S
O237        C243   1.262       .  A
O237       Cd240   2.486       .  S
C238        O246   1.266       .  A
C238       C1501   1.470       .  S
C239        O244   1.268       .  A
C239        O242   1.262       .  A
C239       C1655   1.484       .  S
Cd240       O247   2.469       .  S
Cd240       O246   2.458       .  S
Cd240       O245   2.470       .  S
Cd240       O241   2.434       .  S
Cd240       O244   2.522       .  S
Cd240       O242   2.456       .  S
C243        O247   1.260       .  A
C243       C1485   1.437       .  S
O248        C251   1.266       .  A
O248       Cd253   2.431       .  S
C249        O258   1.267       .  A
C249        O254   1.264       .  A
C249       C1667   1.468       .  S
O250        C256   1.272       .  A
O250       Cd253   2.552       .  S
C251        O259   1.269       .  A
C251       C1491   1.472       .  S
C252        O257   1.265       .  A
C252        O255   1.262       .  A
C252       C1483   1.437       .  S
Cd253       O260   2.383       .  S
Cd253       O259   2.458       .  S
Cd253       O258   2.477       .  S
Cd253       O254   2.392       .  S
Cd253       O257   2.478       .  S
Cd253       O255   2.445       .  S
C256        O260   1.261       .  A
C256       C1511   1.483       .  S
O261        C264   1.262       .  A
O261       Cd266   2.466       .  S
C262        O271   1.263       .  A
C262        O267   1.264       .  A
C262       C1484   1.440       .  S
O263        C269   1.263       .  A
O263       Cd266   2.474       .  S
C264        O272   1.263       .  A
C264       C1479   1.436       .  S
C265        O270   1.263       .  A
C265        O268   1.262       .  A
C265       C1482   1.438       .  S
Cd266       O273   2.484       .  S
Cd266       O272   2.479       .  S
Cd266       O271   2.466       .  S
Cd266       O267   2.498       .  S
Cd266       O270   2.494       .  S
Cd266       O268   2.463       .  S
C269        O273   1.263       .  A
C269       C1648   1.439       .  S
O274        C277   1.263       .  A
O274       Cd279   2.474       .  S
C275        O284   1.262       .  A
C275        O280   1.263       .  A
C275       C1477   1.441       .  S
O276        C282   1.262       .  A
O276       Cd279   2.466       .  S
C277        O285   1.263       .  A
C277       C1586   1.439       .  S
C278        O283   1.263       .  A
C278        O281   1.264       .  A
C278       C1486   1.440       .  S
Cd279       O286   2.486       .  S
Cd279       O285   2.486       .  S
Cd279       O284   2.471       .  S
Cd279       O280   2.503       .  S
Cd279       O283   2.493       .  S
Cd279       O281   2.466       .  S
C282        O286   1.264       .  A
C282       C1475   1.437       .  S
O287        C290   1.266       .  A
O287       Cd292   2.431       .  S
C288        O297   1.267       .  A
C288        O293   1.263       .  A
C288       C1466   1.471       .  S
O289        C295   1.268       .  A
O289       Cd292   2.542       .  S
C290        O298   1.267       .  A
C290       C1446   1.472       .  S
C291        O296   1.267       .  A
C291        O294   1.264       .  A
C291       C1456   1.487       .  S
Cd292       O299   2.415       .  S
Cd292       O298   2.450       .  S
Cd292       O297   2.478       .  S
Cd292       O293   2.435       .  S
Cd292       O296   2.508       .  S
Cd292       O294   2.465       .  S
C295        O299   1.255       .  A
C295       C1478   1.438       .  S
O300        C303   1.262       .  A
O300       Cd305   2.404       .  S
C301        O310   1.269       .  A
C301        O306   1.266       .  A
C301       C1469   1.473       .  S
O302        C308   1.264       .  A
O302       Cd305   2.485       .  S
C303        O311   1.266       .  A
C303       C1426   1.471       .  S
C304        O309   1.268       .  A
C304        O307   1.260       .  A
C304       C1436   1.482       .  S
Cd305       O312   2.453       .  S
Cd305       O311   2.488       .  S
Cd305       O310   2.462       .  S
Cd305       O306   2.434       .  S
Cd305       O309   2.537       .  S
Cd305       O307   2.428       .  S
C308        O312   1.260       .  A
C308       C1481   1.435       .  S
O313        C316   1.263       .  A
O313       Cd318   2.408       .  S
C314        O323   1.268       .  A
C314        O319   1.268       .  A
C314       C1416   1.474       .  S
O315        C321   1.263       .  A
O315       Cd318   2.486       .  S
C316        O324   1.266       .  A
C316       C1404   1.470       .  S
C317        O322   1.265       .  A
C317        O320   1.262       .  A
C317       C1394   1.482       .  S
Cd318       O325   2.455       .  S
Cd318       O324   2.484       .  S
Cd318       O323   2.453       .  S
Cd318       O319   2.443       .  S
Cd318       O322   2.502       .  S
Cd318       O320   2.463       .  S
C321        O325   1.260       .  A
C321       C1413   1.435       .  S
O326        C329   1.263       .  A
O326       Cd331   2.427       .  S
C327        O336   1.266       .  A
C327        O332   1.264       .  A
C327       C1372   1.469       .  S
O328        C334   1.266       .  A
O328       Cd331   2.493       .  S
C329        O337   1.269       .  A
C329       C1419   1.475       .  S
C330        O335   1.269       .  A
C330        O333   1.259       .  A
C330       C1391   1.438       .  S
Cd331       O338   2.464       .  S
Cd331       O337   2.480       .  S
Cd331       O336   2.467       .  S
Cd331       O332   2.415       .  S
Cd331       O335   2.520       .  S
Cd331       O333   2.419       .  S
C334        O338   1.265       .  A
C334       C1382   1.485       .  S
O339        C342   1.261       .  A
O339       Cd344   2.445       .  S
C340        O349   1.265       .  A
C340        O345   1.262   1_455  A
C340       C1369   1.437       .  S
O341        C347   1.262       .  A
O341       Cd344   2.481   1_455  S
C342        O350   1.264       .  A
C342       C1367   1.434       .  S
C343        O348   1.263       .  A
C343        O346   1.263       .  A
C343       C1392   1.440       .  S
Cd344       O351   2.481   1_655  S
Cd344       O350   2.489       .  S
Cd344       O349   2.459   1_655  S
Cd344       O345   2.486       .  S
Cd344       O348   2.500       .  S
Cd344       O346   2.464       .  S
C347        O351   1.262       .  A
C347       C1366   1.438       .  S
O352        C355   1.263       .  A
O352       Cd357   2.467   1_455  S
C353        O362   1.264       .  A
C353        O358   1.262       .  A
C353       C1414   1.438       .  S
O354        C360   1.264       .  A
O354       Cd357   2.471       .  S
C355        O363   1.264       .  A
C355       C1361   1.437       .  S
C356        O361   1.262   1_455  A
C356        O359   1.263       .  A
C356       C1363   1.441       .  S
Cd357       O364   2.471       .  S
Cd357       O363   2.478   1_655  S
Cd357       O362   2.464       .  S
Cd357       O358   2.493       .  S
Cd357       O361   2.504       .  S
Cd357       O359   2.469   1_655  S
C360        O364   1.264       .  A
C360       C1359   1.437       .  S
O365        C368   1.264       .  A
O365       Cd370   2.441       .  S
C366        O375   1.267       .  A
C366        O371   1.265       .  A
C366       C1340   1.469       .  S
O367        C373   1.268       .  A
O367       Cd370   2.527       .  S
C368        O376   1.268       .  A
C368       C1350   1.473       .  S
C369        O374   1.261       .  A
C369        O372   1.262       .  A
C369       C1370   1.434       .  S
Cd370       O377   2.441       .  S
Cd370       O376   2.460       .  S
Cd370       O375   2.455       .  S
Cd370       O371   2.419       .  S
Cd370       O374   2.461       .  S
Cd370       O372   2.472       .  S
C373        O377   1.261       .  A
C373       C1330   1.485       .  S
O378        C381   1.264       .  A
O378       Cd383   2.409       .  S
C379        O388   1.266       .  A
C379        O384   1.265       .  A
C379       C1310   1.470       .  S
O380        C386   1.267       .  A
O380       Cd383   2.493       .  S
C381        O389   1.270       .  A
C381       C1353   1.471       .  S
C382        O387   1.269       .  A
C382        O385   1.256       .  A
C382       C1364   1.437       .  S
Cd383       O390   2.467       .  S
Cd383       O389   2.483       .  S
Cd383       O388   2.456       .  S
Cd383       O384   2.420       .  S
Cd383       O387   2.540       .  S
Cd383       O385   2.406       .  S
C386        O390   1.265       .  A
C386       C1320   1.487       .  S
O391        C394   1.263       .  A
O391       Cd396   2.426       .  S
C392        O401   1.269       .  A
C392        O397   1.267       .  A
C392       C1300   1.476       .  S
O393        C399   1.266       .  A
O393       Cd396   2.513       .  S
C394        O402   1.265       .  A
C394       C1288   1.471       .  S
C395        O400   1.262       .  A
C395        O398   1.260       .  A
C395       C1298   1.436       .  S
Cd396       O403   2.461       .  S
Cd396       O402   2.472       .  S
Cd396       O401   2.465       .  S
Cd396       O397   2.438       .  S
Cd396       O400   2.485       .  S
Cd396       O398   2.467       .  S
C399        O403   1.262       .  A
C399       C1385   1.484       .  S
O404        C407   1.265       .  A
O404       Cd409   2.425       .  S
C405        O414   1.266       .  A
C405        O410   1.262       .  A
C405       C1407   1.468       .  S
O406        C412   1.268       .  A
O406       Cd409   2.536       .  S
C407        O415   1.270       .  A
C407       C1303   1.476       .  S
C408        O413   1.268       .  A
C408        O411   1.265       .  A
C408       C1276   1.486       .  S
Cd409       O416   2.409       .  S
Cd409       O415   2.475       .  S
Cd409       O414   2.489       .  S
Cd409       O410   2.393       .  S
Cd409       O413   2.503       .  S
Cd409       O411   2.459       .  S
C412        O416   1.256       .  A
C412       C1285   1.436       .  S
O417        C420   1.262       .  A
O417       Cd422   2.463       .  S
C418        O427   1.263       .  A
C418        O423   1.264       .  A
C418       C1297   1.439       .  S
O419        C425   1.263       .  A
O419       Cd422   2.499       .  S
C420        O428   1.264       .  A
C420       C1476   1.437       .  S
C421        O426   1.262       .  A
C421        O424   1.263       .  A
C421       C1271   1.438       .  S
Cd422       O429   2.456       .  S
Cd422       O428   2.489       .  S
Cd422       O427   2.462   1_554  S
Cd422       O423   2.494   1_554  S
Cd422       O426   2.464   1_554  S
Cd422       O424   2.495   1_554  S
C425        O429   1.263       .  A
C425       C1274   1.438       .  S
O430        C433   1.262       .  A
O430       Cd435   2.470       .  S
C431        O440   1.263       .  A
C431        O436   1.265       .  A
C431       C1286   1.439       .  S
O432        C438   1.263       .  A
O432       Cd435   2.496       .  S
C433        O441   1.263       .  A
C433       C1738   1.437       .  S
C434        O439   1.263       .  A
C434        O437   1.264       .  A
C434       C1360   1.437       .  S
Cd435       O442   2.457       .  S
Cd435       O441   2.488       .  S
Cd435       O440   2.461   1_554  S
Cd435       O436   2.494   1_554  S
Cd435       O439   2.464   1_554  S
Cd435       O437   2.482   1_554  S
C438        O442   1.263       .  A
C438       C1269   1.437       .  S
O443        C446   1.263       .  A
O443       Cd448   2.412       .  S
C444        O453   1.269       .  A
C444        O449   1.266       .  A
C444       C1260   1.473       .  S
O445        C451   1.267       .  A
O445       Cd448   2.529       .  S
C446        O454   1.266       .  A
C446       C1689   1.469       .  S
C447        O452   1.264       .  A
C447        O450   1.259       .  A
C447       C1270   1.434       .  S
Cd448       O455   2.433       .  S
Cd448       O454   2.470       .  S
Cd448       O453   2.459       .  S
Cd448       O449   2.437       .  S
Cd448       O452   2.493       .  S
Cd448       O450   2.442       .  S
C451        O455   1.261       .  A
C451       C1439   1.483       .  S
O456        C459   1.264       .  A
O456       Cd461   2.436       .  S
C457        O466   1.270       .  A
C457        O462   1.265       .  A
C457       C1263   1.471       .  S
O458        C464   1.268       .  A
O458       Cd461   2.495       .  S
C459        O467   1.265       .  A
C459       C1449   1.472       .  S
C460        O465   1.267       .  A
C460        O463   1.255       .  A
C460       C1273   1.436       .  S
Cd461       O468   2.455       .  S
Cd461       O467   2.461       .  S
Cd461       O466   2.481       .  S
Cd461       O462   2.413       .  S
Cd461       O465   2.535       .  S
Cd461       O463   2.416       .  S
C464        O468   1.264       .  A
C464       C1709   1.484       .  S
O469        C472   1.263       .  A
O469       Cd474   2.471       .  S
C470        O479   1.264       .  A
C470        O475   1.263       .  A
C470       C1255   1.437       .  S
O471        C477   1.264       .  A
O471       Cd474   2.499       .  S
C472        O480   1.263       .  A
C472       C1741   1.435       .  S
C473        O478   1.264       .  A
C473        O476   1.263       .  A
C473       C1254   1.436       .  S
Cd474       O481   2.456       .  S
Cd474       O480   2.466       .  S
Cd474       O479   2.454       .  S
Cd474       O475   2.491       .  S
Cd474       O478   2.475       .  S
Cd474       O476   2.471       .  S
C477        O481   1.263       .  A
C477       C1258   1.439       .  S
O482        C485   1.259       .  A
O482       Cd487   2.402       .  S
C483        O492   1.269       .  A
C483        O488   1.266       .  A
C483       C1429   1.467       .  S
O484        C490   1.269       .  A
O484       Cd487   2.552       .  S
C485        O493   1.268       .  A
C485       C1244   1.470       .  S
C486        O491   1.271       .  A
C486        O489   1.261       .  A
C486       C1699   1.484       .  S
Cd487       O494   2.381       .  S
Cd487       O493   2.514       .  S
Cd487       O492   2.463       .  S
Cd487       O488   2.399       .  S
Cd487       O491   2.541       .  S
Cd487       O489   2.410       .  S
C490        O494   1.253       .  A
C490       C1242   1.434       .  S
O495        C498   1.264       .  A
O495       Cd500   2.447       .  S
C496        O505   1.266       .  A
C496        O501   1.266       .  A
C496       C1719   1.471       .  S
O497        C503   1.266       .  A
O497       Cd500   2.509       .  S
C498        O506   1.268       .  A
C498       C1247   1.474       .  S
C499        O504   1.266       .  A
C499        O502   1.263       .  A
C499       C1459   1.486       .  S
Cd500       O507   2.432       .  S
Cd500       O506   2.461       .  S
Cd500       O505   2.440       .  S
Cd500       O501   2.437       .  S
Cd500       O504   2.503       .  S
Cd500       O502   2.471       .  S
C503        O507   1.258       .  A
C503       C1257   1.436       .  S
O508        C511   1.262       .  A
O508       Cd513   2.504       .  S
C509        O518   1.263       .  A
C509        O514   1.263       .  A
C509       C1368   1.434       .  S
O510        C516   1.263       .  A
O510       Cd513   2.466       .  S
C511        O519   1.264       .  A
C511       C1241   1.439       .  S
C512        O517   1.263       .  A
C512        O515   1.263       .  A
C512       C1239   1.437       .  S
Cd513       O520   2.474       .  S
Cd513       O519   2.456       .  S
Cd513       O518   2.472       .  S
Cd513       O514   2.461       .  S
Cd513       O517   2.500       .  S
Cd513       O515   2.453       .  S
C516        O520   1.263       .  A
C516       C1480   1.436       .  S
O521        C524   1.265       .  A
O521       Cd526   2.423       .  S
C522        O531   1.266       .  A
C522        O527   1.263       .  A
C522       C1375   1.470       .  S
O523        C529   1.267       .  A
O523       Cd526   2.522       .  S
C524        O532   1.270       .  A
C524       C1230   1.471       .  S
C525        O530   1.268       .  A
C525        O528   1.264       .  A
C525       C1220   1.483       .  S
Cd526       O533   2.419       .  S
Cd526       O532   2.464       .  S
Cd526       O531   2.472       .  S
Cd526       O527   2.416       .  S
Cd526       O530   2.493       .  S
Cd526       O528   2.448       .  S
C529        O533   1.257       .  A
C529       C1240   1.435       .  S
O534        C537   1.266       .  A
O534       Cd539   2.427       .  S
C535        O544   1.267       .  A
C535        O540   1.262       .  A
C535       C1233   1.470       .  S
O536        C542   1.266       .  A
O536       Cd539   2.478       .  S
C537        O545   1.267       .  A
C537       C1210   1.471       .  S
C538        O543   1.268       .  A
C538        O541   1.255       .  A
C538       C1256   1.434       .  S
Cd539       O546   2.468       .  S
Cd539       O545   2.446       .  S
Cd539       O544   2.485       .  S
Cd539       O540   2.424       .  S
Cd539       O543   2.535       .  S
Cd539       O541   2.398       .  S
C542        O546   1.266       .  A
C542       C1397   1.483       .  S
O547        C550   1.265       .  A
O547       Cd552   2.437       .  S
C548        O557   1.267       .  A
C548        O553   1.265       .  A
C548       C1200   1.474       .  S
O549        C555   1.261       .  A
O549       Cd552   2.476       .  S
C550        O558   1.265       .  A
C550       C1213   1.471       .  S
C551        O556   1.266       .  A
C551        O554   1.263       .  A
C551       C1279   1.486       .  S
Cd552       O559   2.482       .  S
Cd552       O558   2.450       .  S
Cd552       O557   2.457       .  S
Cd552       O553   2.454       .  S
Cd552       O556   2.505       .  S
Cd552       O554   2.470       .  S
C555        O559   1.262       .  A
C555       C1197   1.439       .  S
O560        C563   1.263       .  A
O560       Cd565   2.423       .  S
C561        O570   1.267       .  A
C561        O566   1.263       .  A
C561       C1291   1.471       .  S
O562        C568   1.266       .  A
O562       Cd565   2.509       .  S
C563        O571   1.269       .  A
C563       C1203   1.474       .  S
C564        O569   1.260       .  A
C564        O567   1.260       .  A
C564       C1195   1.434       .  S
Cd565       O572   2.458       .  S
Cd565       O571   2.493       .  S
Cd565       O570   2.480       .  S
Cd565       O566   2.411       .  S
Cd565       O569   2.478       .  S
Cd565       O567   2.471       .  S
C568        O572   1.262       .  A
C568       C1223   1.482       .  S
O573        C576   1.262       .  A
O573       Cd578   2.490       .  S
C574        O583   1.265       .  A
C574        O579   1.263       .  A
C574       C1191   1.437       .  S
O575        C581   1.264       .  A
O575       Cd578   2.488       .  S
C576        O584   1.263       .  A
C576       C1196   1.437       .  S
C577        O582   1.260       .  A
C577        O580   1.263       .  A
C577       C1272   1.438       .  S
Cd578       O585   2.458       .  S
Cd578       O584   2.464       .  S
Cd578       O583   2.481       .  S
Cd578       O579   2.464       .  S
Cd578       O582   2.464       .  S
Cd578       O580   2.504       .  S
C581        O585   1.264       .  A
C581       C1193   1.437       .  S
O586        C589   1.262       .  A
O586       Cd591   2.493       .  S
C587        O596   1.264       .  A
C587        O592   1.263       .  A
C587       C1253   1.436       .  S
O588        C594   1.264       .  A
O588       Cd591   2.499       .  S
C589        O597   1.263       .  A
C589       C1190   1.439       .  S
C590        O595   1.263       .  A
C590        O593   1.263       .  A
C590       C1188   1.438       .  S
Cd591       O598   2.472       .  S
Cd591       O597   2.468       .  S
Cd591       O596   2.479       .  S
Cd591       O592   2.462       .  S
Cd591       O595   2.475       .  S
Cd591       O593   2.484       .  S
C594        O598   1.263       .  A
C594       C1198   1.441       .  S
O599        C602   1.264       .  A
O599       Cd604   2.429       .  S
C600        O609   1.267       .  A
C600        O605   1.265       .  A
C600       C1158   1.468       .  S
O601        C607   1.268       .  A
O601       Cd604   2.538       .  S
C602        O610   1.269       .  A
C602       C1178   1.475       .  S
C603        O608   1.261       .  A
C603        O606   1.261       .  A
C603       C1189   1.436       .  S
Cd604       O611   2.435       .  S
Cd604       O610   2.481       .  S
Cd604       O609   2.459       .  S
Cd604       O605   2.413       .  S
Cd604       O608   2.474       .  S
Cd604       O606   2.472       .  S
C607        O611   1.261       .  A
C607       C1168   1.485       .  S
O612        C615   1.262       .  A
O612       Cd617   2.441       .  S
C613        O622   1.267       .  A
C613        O618   1.266       .  A
C613       C1138   1.469       .  S
O614        C620   1.266       .  A
O614       Cd617   2.478       .  S
C615        O623   1.267       .  A
C615       C1181   1.473       .  S
C616        O621   1.268       .  A
C616        O619   1.256       .  A
C616       C1194   1.435       .  S
Cd617       O624   2.474       .  S
Cd617       O623   2.479       .  S
Cd617       O622   2.446       .  S
Cd617       O618   2.419       .  S
Cd617       O621   2.532       .  S
Cd617       O619   2.407       .  S
C620        O624   1.266       .  A
C620       C1148   1.485       .  S
O625        C628   1.263       .  A
O625       Cd630   2.496       .  S
C626        O635   1.263       .  A
C626        O631   1.263       .  A
C626       C1646   1.438       .  S
O627        C633   1.263       .  A
O627       Cd630   2.499       .  S
C628        O636   1.263       .  A
C628       C1133   1.441       .  S
C629        O634   1.263       .  A
C629        O632   1.263       .  A
C629       C1132   1.436       .  S
Cd630       O637   2.471       .  S
Cd630       O636   2.473       .  S
Cd630       O635   2.481       .  S
Cd630       O631   2.473       .  S
Cd630       O634   2.468       .  S
Cd630       O632   2.477       .  S
C633        O637   1.263       .  A
C633       C1136   1.441       .  S
O638        C641   1.260       .  A
O638       Cd643   2.408       .  S
C639        O648   1.270       .  A
C639        O644   1.266       .  A
C639       C1122   1.474       .  S
O640        C646   1.265       .  A
O640       Cd643   2.512       .  S
C641        O649   1.265       .  A
C641       C1555   1.469       .  S
C642        O647   1.268       .  A
C642        O645   1.264       .  A
C642       C1625   1.483       .  S
Cd643       O650   2.431       .  S
Cd643       O649   2.487       .  S
Cd643       O648   2.465       .  S
Cd643       O644   2.422       .  S
Cd643       O647   2.502       .  S
Cd643       O645   2.449       .  S
C646        O650   1.258       .  A
C646       C1120   1.435       .  S
O651        C654   1.266       .  A
O651       Cd656   2.439       .  S
C652        O661   1.267       .  A
C652        O657   1.264       .  A
C652       C1605   1.468       .  S
O653        C659   1.266       .  A
O653       Cd656   2.519       .  S
C654        O662   1.268       .  A
C654       C1125   1.474       .  S
C655        O660   1.263       .  A
C655        O658   1.261       .  A
C655       C1135   1.438       .  S
Cd656       O663   2.454       .  S
Cd656       O662   2.457       .  S
Cd656       O661   2.469       .  S
Cd656       O657   2.407       .  S
Cd656       O660   2.487       .  S
Cd656       O658   2.459       .  S
C659        O663   1.261       .  A
C659       C1542   1.485       .  S
O664        C667   1.263       .  A
O664       Cd669   2.478       .  S
C665        O674   1.263       .  A
C665        O670   1.264       .  A
C665       C1119   1.436       .  S
O666        C672   1.264       .  A
O666       Cd669   2.481       .  S
C667        O675   1.263       .  A
C667       C1115   1.439       .  S
C668        O673   1.263       .  A
C668        O671   1.263       .  A
C668       C1117   1.439       .  S
Cd669       O676   2.468       .  S
Cd669       O675   2.479       .  S
Cd669       O674   2.451       .  S
Cd669       O670   2.490       .  S
Cd669       O673   2.500       .  S
Cd669       O671   2.461       .  S
C672        O676   1.262       .  A
C672       C1528   1.437       .  S
O677        C680   1.266       .  A
O677       Cd682   2.442       .  S
C678        O687   1.267       .  A
C678        O683   1.265       .  A
C678       C1106   1.470       .  S
O679        C685   1.268       .  A
O679       Cd682   2.525       .  S
C680        O688   1.267       .  A
C680       C1086   1.473       .  S
C681        O686   1.268       .  A
C681        O684   1.263       .  A
C681       C1096   1.486       .  S
Cd682       O689   2.426       .  S
Cd682       O688   2.450       .  S
Cd682       O687   2.468       .  S
Cd682       O683   2.434       .  S
Cd682       O686   2.513       .  S
Cd682       O684   2.452       .  S
C685        O689   1.258       .  A
C685       C1134   1.438       .  S
O690        C693   1.264       .  A
O690       Cd695   2.439       .  S
C691        O700   1.268       .  A
C691        O696   1.266       .  A
C691       C1109   1.471       .  S
O692        C698   1.265       .  A
O692       Cd695   2.505       .  S
C693        O701   1.266       .  A
C693       C1066   1.474       .  S
C694        O699   1.267       .  A
C694        O697   1.261       .  A
C694       C1076   1.485       .  S
Cd695       O702   2.446       .  S
Cd695       O701   2.467       .  S
Cd695       O700   2.458       .  S
Cd695       O696   2.436       .  S
Cd695       O699   2.520       .  S
Cd695       O697   2.455       .  S
C698        O702   1.258       .  A
C698       C1118   1.437       .  S
O703        C706   1.263       .  A
O703       Cd708   2.493       .  S
C704        O713   1.265       .  A
C704        O709   1.263       .  A
C704       C1365   1.438       .  S
O705        C711   1.263       .  A
O705       Cd708   2.467       .  S
C706        O714   1.264       .  A
C706       C1063   1.437       .  S
C707        O712   1.262       .  A
C707        O710   1.263       .  A
C707       C1061   1.440       .  S
Cd708       O715   2.472       .  S
Cd708       O714   2.456       .  S
Cd708       O713   2.478       .  S
Cd708       O709   2.471       .  S
Cd708       O712   2.495       .  S
Cd708       O710   2.471       .  S
C711        O715   1.264       .  A
C711       C1131   1.436       .  S
O716        C719   1.265       .  A
O716       Cd721   2.414       .  S
C717        O726   1.266       .  A
C717        O722   1.264       .  A
C717       C1141   1.470       .  S
O718        C724   1.268       .  A
O718       Cd721   2.537       .  S
C719        O727   1.270       .  A
C719       C1052   1.471       .  S
C720        O725   1.267       .  A
C720        O723   1.265       .  A
C720       C1323   1.487       .  S
Cd721       O728   2.410       .  S
Cd721       O727   2.470       .  S
Cd721       O726   2.459       .  S
Cd721       O722   2.420       .  S
Cd721       O725   2.495       .  S
Cd721       O723   2.471       .  S
C724        O728   1.256       .  A
C724       C1050   1.437       .  S
O729        C732   1.264       .  A
O729       Cd734   2.432       .  S
C730        O739   1.266       .  A
C730        O735   1.264       .  A
C730       C1343   1.469       .  S
O731        C737   1.261       .  A
O731       Cd734   2.461       .  S
C732        O740   1.268       .  A
C732       C1055   1.472       .  S
C733        O738   1.269       .  A
C733        O736   1.262       .  A
C733       C1171   1.485       .  S
Cd734       O741   2.477       .  S
Cd734       O740   2.469       .  S
Cd734       O739   2.456       .  S
Cd734       O735   2.421       .  S
Cd734       O738   2.532       .  S
Cd734       O736   2.432       .  S
C737        O741   1.263       .  A
C737       C1062   1.436       .  S
O742        C745   1.263       .  A
O742       Cd747   2.466       .  S
C743        O752   1.264       .  A
C743        O748   1.262       .  A
C743       C1049   1.440       .  S
O744        C750   1.262       .  A
O744       Cd747   2.504       .  S
C745        O753   1.264       .  A
C745       C1046   1.436       .  S
C746        O751   1.264       .  A
C746        O749   1.264       .  A
C746       C1192   1.438       .  S
Cd747       O754   2.465       .  S
Cd747       O753   2.471       .  S
Cd747       O752   2.466       .  S
Cd747       O748   2.500       .  S
Cd747       O751   2.470       .  S
Cd747       O749   2.476       .  S
C750        O754   1.263       .  A
C750       C1048   1.440       .  S
O755        C758   1.263       .  A
O755       Cd760   2.418       .  S
C756        O765   1.269       .  A
C756        O761   1.265       .  A
C756       C1036   1.476       .  S
O757        C763   1.265       .  A
O757       Cd760   2.502       .  S
C758        O766   1.266       .  A
C758       C1026   1.471       .  S
C759        O764   1.264       .  A
C759        O762   1.258       .  A
C759       C1047   1.437       .  S
Cd760       O767   2.472       .  S
Cd760       O766   2.478       .  S
Cd760       O765   2.473       .  S
Cd760       O761   2.437       .  S
Cd760       O764   2.509       .  S
Cd760       O762   2.445       .  S
C763        O767   1.263       .  A
C763       C1079   1.485       .  S
O768        C771   1.263       .  A
O768       Cd773   2.447       .  S
C769        O778   1.265       .  A
C769        O774   1.267       .  A
C769       C1089   1.473       .  S
O770        C776   1.266       .  A
O770       Cd773   2.521       .  S
C771        O779   1.267       .  A
C771       C1039   1.476       .  S
C772        O777   1.265       .  A
C772        O775   1.265       .  A
C772       C1016   1.484       .  S
Cd773       O780   2.419       .  S
Cd773       O779   2.481       .  S
Cd773       O778   2.439       .  S
Cd773       O774   2.453       .  S
Cd773       O777   2.481       .  S
Cd773       O775   2.484       .  S
C776        O780   1.257       .  A
C776       C1064   1.434       .  S
O781        C784   1.263       .  A
O781       Cd786   2.403       .  S
C782        O791   1.268       .  A
C782        O787   1.262       .  A
C782       C1006   1.474       .  S
O783        C789   1.269       .  A
O783       Cd786   2.525       .  S
C784        O792   1.268       .  A
C784        C994   1.471       .  S
C785        O790   1.266       .  A
C785        O788   1.265       .  A
C785       C1019   1.484       .  S
Cd786       O793   2.424       .  S
Cd786       O792   2.479       .  S
Cd786       O791   2.498       .  S
Cd786       O787   2.404       .  S
Cd786       O790   2.475       .  S
Cd786       O788   2.473       .  S
C789        O793   1.259       .  A
C789       C1003   1.439       .  S
O794        C797   1.265       .  A
O794       Cd799   2.415       .  S
C795        O804   1.268       .  A
C795        O800   1.263       .  A
C795       C1029   1.472       .  S
O796        C802   1.264       .  A
O796       Cd799   2.501       .  S
C797        O805   1.268       .  A
C797       C1009   1.475       .  S
C798        O803   1.264       .  A
C798        O801   1.260       .  A
C798        C991   1.436       .  S
Cd799       O806   2.468       .  S
Cd799       O805   2.488       .  S
Cd799       O804   2.485       .  S
Cd799       O800   2.409       .  S
Cd799       O803   2.499       .  S
Cd799       O801   2.448       .  S
C802        O806   1.263       .  A
C802        C982   1.484       .  S
O807        C810   1.264       .  A
O807       Cd812   2.471       .  S
C808        O817   1.264       .  A
C808        O813   1.262       .  A
C808        C979   1.440       .  S
O809        C815   1.263       .  A
O809       Cd812   2.479   1_554  S
C810        O818   1.263       .  A
C810       C1045   1.436       .  S
C811        O816   1.264       .  A
C811        O814   1.263       .  A
C811        C992   1.438       .  S
Cd812       O819   2.487   1_556  S
Cd812       O818   2.468       .  S
Cd812       O817   2.471   1_556  S
Cd812       O813   2.495   1_556  S
Cd812       O816   2.498       .  S
Cd812       O814   2.454       .  S
C815        O819   1.264       .  A
C815       C1584   1.440       .  S
O820        C823   1.264       .  A
O820       Cd825   2.501       .  S
C821        O830   1.264       .  A
C821        O826   1.263       .  A
C821        C975   1.438       .  S
O822        C828   1.264       .  A
O822       Cd825   2.497   1_556  S
C823        O831   1.263       .  A
C823        C977   1.442       .  S
C824        O829   1.263       .  A
C824        O827   1.263       .  A
C824       C1642   1.440       .  S
Cd825       O832   2.470   1_554  S
Cd825       O831   2.468       .  S
Cd825       O830   2.485   1_554  S
Cd825       O826   2.471   1_554  S
Cd825       O829   2.478       .  S
Cd825       O827   2.491       .  S
C828        O832   1.263       .  A
C828       C1004   1.441       .  S
O833        C836   1.264       .  A
O833       Cd838   2.398       .  S
C834        O843   1.268       .  A
C834        O839   1.263       .  A
C834        C966   1.475       .  S
O835        C841   1.261       .  A
O835       Cd838   2.475       .  S
C836        O844   1.267       .  A
C836       C1535   1.468       .  S
C837        O842   1.268       .  A
C837        O840   1.263       .  A
C837       C1595   1.484       .  S
Cd838       O845   2.475       .  S
Cd838       O844   2.478       .  S
Cd838       O843   2.481       .  S
Cd838       O839   2.437       .  S
Cd838       O842   2.522       .  S
Cd838       O840   2.442       .  S
C841        O845   1.261       .  A
C841        C980   1.437       .  S
O846        C849   1.264       .  A
O846       Cd851   2.435       .  S
C847        O856   1.267       .  A
C847        O852   1.265       .  A
C847       C1615   1.465       .  S
O848        C854   1.269       .  A
O848       Cd851   2.539       .  S
C849        O857   1.269       .  A
C849        C969   1.475       .  S
C850        O855   1.264       .  A
C850        O853   1.259       .  A
C850        C978   1.439       .  S
Cd851       O858   2.428       .  S
Cd851       O857   2.477       .  S
Cd851       O856   2.474       .  S
Cd851       O852   2.393       .  S
Cd851       O855   2.503       .  S
Cd851       O853   2.454       .  S
C854        O858   1.261       .  A
C854       C1565   1.485       .  S
O859        C862   1.265       .  A
O859       Cd864   2.425       .  S
C860        O869   1.266       .  A
C860        O865   1.266       .  A
C860        C997   1.471       .  S
O861        C867   1.270       .  A
O861       Cd864   2.534       .  S
C862        O870   1.267       .  A
C862        C956   1.468       .  S
C863        O868   1.268       .  A
C863        O866   1.263       .  A
C863       C1099   1.486       .  S
Cd864       O871   2.403       .  S
Cd864       O870   2.467       .  S
Cd864       O869   2.455       .  S
Cd864       O865   2.423       .  S
Cd864       O868   2.512       .  S
Cd864       O866   2.450       .  S
C867        O871   1.256       .  A
C867        C953   1.437       .  S
O872        C875   1.266       .  A
O872       Cd877   2.439       .  S
C873        O882   1.266       .  A
C873        O878   1.265       .  A
C873       C1069   1.474       .  S
O874        C880   1.265       .  A
O874       Cd877   2.507       .  S
C875        O883   1.267       .  A
C875        C959   1.470       .  S
C876        O881   1.268       .  A
C876        O879   1.262       .  A
C876        C985   1.483       .  S
Cd877       O884   2.436       .  S
Cd877       O883   2.451       .  S
Cd877       O882   2.462       .  S
Cd877       O878   2.439       .  S
Cd877       O881   2.513       .  S
Cd877       O879   2.444       .  S
C880        O884   1.258       .  A
C880        C952   1.435       .  S
O885        C888   1.262       .  A
O885       Cd890   2.466   1_545  S
C886        O895   1.264       .  A
C886        O891   1.264       .  A
C886        C954   1.440       .  S
O887        C893   1.263   1_565  A
O887       Cd890   2.497       .  S
C888        O896   1.263       .  A
C888       C1362   1.437       .  S
C889        O894   1.263       .  A
C889        O892   1.264       .  A
C889        C976   1.438       .  S
Cd890       O897   2.458   1_565  S
Cd890       O896   2.488   1_565  S
Cd890       O895   2.472       .  S
Cd890       O891   2.489       .  S
Cd890       O894   2.471       .  S
Cd890       O892   2.481       .  S
C893        O897   1.263       .  A
C893        C949   1.438       .  S
O898        C901   1.264       .  A
O898       Cd903   2.493       .  S
C899        O908   1.264       .  A
C899        O904   1.262       .  A
C899       C1187   1.438       .  S
O900        C906   1.263       .  A
O900       Cd903   2.470       .  S
C901        O909   1.263       .  A
C901        C951   1.438       .  S
C902        O907   1.264       .  A
C902        O905   1.263   1_545  A
C902        C947   1.440       .  S
Cd903       O910   2.487       .  S
Cd903       O909   2.457       .  S
Cd903       O908   2.487   1_565  S
Cd903       O904   2.466   1_565  S
Cd903       O907   2.490   1_565  S
Cd903       O905   2.476       .  S
C906        O910   1.264       .  A
C906       C1116   1.439       .  S
O911        C914   1.265       .  A
O911       Cd916   2.414       .  S
C912        O921   1.268       .  A
C912        O917   1.262       .  A
C912        C938   1.474       .  S
O913        C919   1.267       .  A
O913       Cd916   2.480       .  S
C914        O922   1.268       .  A
C914       C1313   1.470       .  S
C915        O920   1.268       .  A
C915        O918   1.256       .  A
C915        C950   1.435       .  S
Cd916       O923   2.474       .  S
Cd916       O922   2.458       .  S
Cd916       O921   2.483       .  S
Cd916       O917   2.432       .  S
Cd916       O920   2.534       .  S
Cd916       O918   2.410       .  S
C919        O923   1.266       .  A
C919       C1151   1.485       .  S
O924        C927   1.263       .  A
O924       Cd929   2.432       .  S
C925        O934   1.267       .  A
C925        O930   1.264       .  A
C925       C1161   1.468       .  S
O926        C932   1.261       .  A
O926       Cd929   2.470       .  S
C927        O935   1.269       .  A
C927        C941   1.475       .  S
C928        O933   1.269       .  A
C928        O931   1.262       .  A
C928       C1333   1.485       .  S
Cd929       O936   2.483       .  S
Cd929       O935   2.483       .  S
Cd929       O934   2.464       .  S
Cd929       O930   2.412       .  S
Cd929       O933   2.533       .  S
Cd929       O931   2.436       .  S
C932        O936   1.262       .  A
C932        C948   1.437       .  S
C937        C938   1.406       .  A
C937        C942   1.397       .  A
C937        H943   1.083       .  S
C938        C939   1.402       .  A
C939        C940   1.397       .  A
C939        H944   1.083       .  S
C940        C941   1.407       .  A
C940        H945   1.083       .  S
C941        C942   1.402       .  A
C942        H946   1.083       .  S
C947        C948   1.208       .  T
C949        C950   1.207       .  T
C951        C952   1.207       .  T
C953        C954   1.208       .  T
C955        C956   1.402       .  A
C955        C960   1.397       .  A
C955        H961   1.083       .  S
C956        C957   1.403       .  A
C957        C958   1.395       .  A
C957        H962   1.083       .  S
C958        C959   1.403       .  A
C958        H963   1.083       .  S
C959        C960   1.405       .  A
C960        H964   1.083       .  S
C965        C966   1.402       .  A
C965        C970   1.397       .  A
C965        H971   1.083       .  S
C966        C967   1.406       .  A
C967        C968   1.397       .  A
C967        H972   1.083       .  S
C968        C969   1.402       .  A
C968        H973   1.083       .  S
C969        C970   1.406       .  A
C970        H974   1.083       .  S
C975        C976   1.208       .  T
C977        C978   1.209       .  T
C979        C980   1.208       .  T
C981        C982   1.405       .  A
C981        C986   1.397       .  A
C981        H987   1.083       .  S
C982        C983   1.407       .  A
C983        C984   1.403       .  A
C983        H988   1.083       .  S
C984        C985   1.406       .  A
C984        H989   1.083       .  S
C985        C986   1.406       .  A
C986        H990   1.083       .  S
C991        C992   1.207       .  T
C993        C994   1.404       .  A
C993        C998   1.391       .  A
C993        H999   1.083       .  S
C994        C995   1.404       .  A
C995        C996   1.399       .  A
C995       H1000   1.083       .  S
C996        C997   1.406       .  A
C996       H1001   1.083       .  S
C997        C998   1.402       .  A
C998       H1002   1.083       .  S
C1003      C1004   1.209       .  T
C1005      C1006   1.405       .  A
C1005      C1010   1.402       .  A
C1005      H1011   1.083       .  S
C1006      C1007   1.403       .  A
C1007      C1008   1.390       .  A
C1007      H1012   1.083       .  S
C1008      C1009   1.403       .  A
C1008      H1013   1.083       .  S
C1009      C1010   1.406       .  A
C1010      H1014   1.083       .  S
C1015      C1016   1.406       .  A
C1015      C1020   1.401       .  A
C1015      H1021   1.083       .  S
C1016      C1017   1.406       .  A
C1017      C1018   1.401       .  A
C1017      H1022   1.083       .  S
C1018      C1019   1.407       .  A
C1018      H1023   1.083       .  S
C1019      C1020   1.406       .  A
C1020      H1024   1.083       .  S
C1025      C1026   1.402       .  A
C1025      C1030   1.389       .  A
C1025      H1031   1.083       .  S
C1026      C1027   1.405       .  A
C1027      C1028   1.400       .  A
C1027      H1032   1.083       .  S
C1028      C1029   1.405       .  A
C1028      H1033   1.083       .  S
C1029      C1030   1.403       .  A
C1030      H1034   1.083       .  S
C1035      C1036   1.406       .  A
C1035      C1040   1.398       .  A
C1035      H1041   1.083       .  S
C1036      C1037   1.403       .  A
C1037      C1038   1.397       .  A
C1037      H1042   1.083       .  S
C1038      C1039   1.406       .  A
C1038      H1043   1.083       .  S
C1039      C1040   1.403       .  A
C1040      H1044   1.083       .  S
C1045      C1046   1.206       .  T
C1047      C1048   1.208       .  T
C1049      C1050   1.208       .  T
C1051      C1052   1.405       .  A
C1051      C1056   1.395       .  A
C1051      H1057   1.083       .  S
C1052      C1053   1.402       .  A
C1053      C1054   1.397       .  A
C1053      H1058   1.083       .  S
C1054      C1055   1.406       .  A
C1054      H1059   1.083       .  S
C1055      C1056   1.402       .  A
C1056      H1060   1.083       .  S
C1061      C1062   1.208       .  T
C1063      C1064   1.206       .  T
C1065      C1066   1.405       .  A
C1065      C1070   1.398       .  A
C1065      H1071   1.083       .  S
C1066      C1067   1.404       .  A
C1067      C1068   1.394       .  A
C1067      H1072   1.083       .  S
C1068      C1069   1.404       .  A
C1068      H1073   1.083       .  S
C1069      C1070   1.405       .  A
C1070      H1074   1.083       .  S
C1075      C1076   1.406       .  A
C1075      C1080   1.404       .  A
C1075      H1081   1.083       .  S
C1076      C1077   1.406       .  A
C1077      C1078   1.398       .  A
C1077      H1082   1.083       .  S
C1078      C1079   1.405       .  A
C1078      H1083   1.083       .  S
C1079      C1080   1.407       .  A
C1080      H1084   1.083       .  S
C1085      C1086   1.404       .  A
C1085      C1090   1.396       .  A
C1085      H1091   1.083       .  S
C1086      C1087   1.404       .  A
C1087      C1088   1.396       .  A
C1087      H1092   1.083       .  S
C1088      C1089   1.404       .  A
C1088      H1093   1.083       .  S
C1089      C1090   1.405       .  A
C1090      H1094   1.083       .  S
C1095      C1096   1.407       .  A
C1095      C1100   1.405       .  A
C1095      H1101   1.083       .  S
C1096      C1097   1.406       .  A
C1097      C1098   1.398       .  A
C1097      H1102   1.083       .  S
C1098      C1099   1.406       .  A
C1098      H1103   1.083       .  S
C1099      C1100   1.407       .  A
C1100      H1104   1.083       .  S
C1105      C1106   1.403       .  A
C1105      C1110   1.397       .  A
C1105      H1111   1.083       .  S
C1106      C1107   1.404       .  A
C1107      C1108   1.396       .  A
C1107      H1112   1.083       .  S
C1108      C1109   1.403       .  A
C1108      H1113   1.083       .  S
C1109      C1110   1.405       .  A
C1110      H1114   1.083       .  S
C1115      C1116   1.208       .  T
C1117      C1118   1.208       .  T
C1119      C1120   1.206       .  T
C1121      C1122   1.404       .  A
C1121      C1126   1.395       .  A
C1121      H1127   1.083       .  S
C1122      C1123   1.404       .  A
C1123      C1124   1.398       .  A
C1123      H1128   1.083       .  S
C1124      C1125   1.405       .  A
C1124      H1129   1.083       .  S
C1125      C1126   1.404       .  A
C1126      H1130   1.083       .  S
C1131      C1132   1.206       .  T
C1133      C1134   1.209       .  T
C1135      C1136   1.209       .  T
C1137      C1138   1.402       .  A
C1137      C1142   1.392       .  A
C1137      H1143   1.083       .  S
C1138      C1139   1.404       .  A
C1139      C1140   1.397       .  A
C1139      H1144   1.083       .  S
C1140      C1141   1.404       .  A
C1140      H1145   1.083       .  S
C1141      C1142   1.403       .  A
C1142      H1146   1.083       .  S
C1147      C1148   1.406       .  A
C1147      C1152   1.401       .  A
C1147      H1153   1.083       .  S
C1148      C1149   1.406       .  A
C1149      C1150   1.401       .  A
C1149      H1154   1.083       .  S
C1150      C1151   1.406       .  A
C1150      H1155   1.083       .  S
C1151      C1152   1.406       .  A
C1152      H1156   1.083       .  S
C1157      C1158   1.402       .  A
C1157      C1162   1.390       .  A
C1157      H1163   1.083       .  S
C1158      C1159   1.404       .  A
C1159      C1160   1.398       .  A
C1159      H1164   1.083       .  S
C1160      C1161   1.404       .  A
C1160      H1165   1.083       .  S
C1161      C1162   1.403       .  A
C1162      H1166   1.083       .  S
C1167      C1168   1.407       .  A
C1167      C1172   1.408       .  A
C1167      H1173   1.083       .  S
C1168      C1169   1.405       .  A
C1169      C1170   1.395       .  A
C1169      H1174   1.083       .  S
C1170      C1171   1.405       .  A
C1170      H1175   1.083       .  S
C1171      C1172   1.408       .  A
C1172      H1176   1.082       .  S
C1177      C1178   1.406       .  A
C1177      C1182   1.396       .  A
C1177      H1183   1.083       .  S
C1178      C1179   1.403       .  A
C1179      C1180   1.397       .  A
C1179      H1184   1.083       .  S
C1180      C1181   1.406       .  A
C1180      H1185   1.083       .  S
C1181      C1182   1.402       .  A
C1182      H1186   1.083       .  S
C1187      C1188   1.207       .  T
C1189      C1190   1.207       .  T
C1191      C1192   1.207       .  T
C1193      C1194   1.207       .  T
C1195      C1196   1.206       .  T
C1197      C1198   1.209       .  T
C1199      C1200   1.406       .  A
C1199      C1204   1.400       .  A
C1199      H1205   1.083       .  S
C1200      C1201   1.402       .  A
C1201      C1202   1.394       .  A
C1201      H1206   1.083       .  S
C1202      C1203   1.405       .  A
C1202      H1207   1.083       .  S
C1203      C1204   1.403       .  A
C1204      H1208   1.083       .  S
C1209      C1210   1.404       .  A
C1209      C1214   1.396       .  A
C1209      H1215   1.083       .  S
C1210      C1211   1.403       .  A
C1211      C1212   1.393       .  A
C1211      H1216   1.083       .  S
C1212      C1213   1.403       .  A
C1212      H1217   1.083       .  S
C1213      C1214   1.404       .  A
C1214      H1218   1.083       .  S
C1219      C1220   1.407       .  A
C1219      C1224   1.403       .  A
C1219      H1225   1.083       .  S
C1220      C1221   1.406       .  A
C1221      C1222   1.397       .  A
C1221      H1226   1.083       .  S
C1222      C1223   1.404       .  A
C1222      H1227   1.083       .  S
C1223      C1224   1.406       .  A
C1224      H1228   1.083       .  S
C1229      C1230   1.401       .  A
C1229      C1234   1.396       .  A
C1229      H1235   1.083       .  S
C1230      C1231   1.406       .  A
C1231      C1232   1.397       .  A
C1231      H1236   1.083       .  S
C1232      C1233   1.401       .  A
C1232      H1237   1.083       .  S
C1233      C1234   1.405       .  A
C1234      H1238   1.083       .  S
C1239      C1240   1.207       .  T
C1241      C1242   1.207       .  T
C1243      C1244   1.404       .  A
C1243      C1248   1.393       .  A
C1243      H1249   1.083       .  S
C1244      C1245   1.401       .  A
C1245      C1246   1.400       .  A
C1245      H1250   1.083       .  S
C1246      C1247   1.408       .  A
C1246      H1251   1.083       .  S
C1247      C1248   1.402       .  A
C1248      H1252   1.083       .  S
C1253      C1254   1.206       .  T
C1255      C1256   1.206       .  T
C1257      C1258   1.207       .  T
C1259      C1260   1.402       .  A
C1259      C1264   1.395       .  A
C1259      H1265   1.083       .  S
C1260      C1261   1.406       .  A
C1261      C1262   1.399       .  A
C1261      H1266   1.083       .  S
C1262      C1263   1.402       .  A
C1262      H1267   1.083       .  S
C1263      C1264   1.404       .  A
C1264      H1268   1.083       .  S
C1269      C1270   1.206       .  T
C1271      C1272   1.207       .  T
C1273      C1274   1.207       .  T
C1275      C1276   1.406       .  A
C1275      C1280   1.399       .  A
C1275      H1281   1.083       .  S
C1276      C1277   1.407       .  A
C1277      C1278   1.404       .  A
C1277      H1282   1.083       .  S
C1278      C1279   1.407       .  A
C1278      H1283   1.083       .  S
C1279      C1280   1.406       .  A
C1280      H1284   1.083       .  S
C1285      C1286   1.208       .  T
C1287      C1288   1.402       .  A
C1287      C1292   1.390       .  A
C1287      H1293   1.083       .  S
C1288      C1289   1.405       .  A
C1289      C1290   1.399       .  A
C1289      H1294   1.083       .  S
C1290      C1291   1.404       .  A
C1290      H1295   1.083       .  S
C1291      C1292   1.403       .  A
C1292      H1296   1.083       .  S
C1297      C1298   1.208       .  T
C1299      C1300   1.404       .  A
C1299      C1304   1.395       .  A
C1299      H1305   1.083       .  S
C1300      C1301   1.405       .  A
C1301      C1302   1.400       .  A
C1301      H1306   1.083       .  S
C1302      C1303   1.405       .  A
C1302      H1307   1.083       .  S
C1303      C1304   1.405       .  A
C1304      H1308   1.083       .  S
C1309      C1310   1.404       .  A
C1309      C1314   1.397       .  A
C1309      H1315   1.083       .  S
C1310      C1311   1.403       .  A
C1311      C1312   1.391       .  A
C1311      H1316   1.083       .  S
C1312      C1313   1.403       .  A
C1312      H1317   1.083       .  S
C1313      C1314   1.404       .  A
C1314      H1318   1.083       .  S
C1319      C1320   1.407       .  A
C1319      C1324   1.400       .  A
C1319      H1325   1.083       .  S
C1320      C1321   1.407       .  A
C1321      C1322   1.403       .  A
C1321      H1326   1.083       .  S
C1322      C1323   1.407       .  A
C1322      H1327   1.083       .  S
C1323      C1324   1.406       .  A
C1324      H1328   1.083       .  S
C1329      C1330   1.405       .  A
C1329      C1334   1.395       .  A
C1329      H1335   1.083       .  S
C1330      C1331   1.407       .  A
C1331      C1332   1.407       .  A
C1331      H1336   1.083       .  S
C1332      C1333   1.407       .  A
C1332      H1337   1.082       .  S
C1333      C1334   1.405       .  A
C1334      H1338   1.083       .  S
C1339      C1340   1.403       .  A
C1339      C1344   1.391       .  A
C1339      H1345   1.083       .  S
C1340      C1341   1.404       .  A
C1341      C1342   1.397       .  A
C1341      H1346   1.083       .  S
C1342      C1343   1.404       .  A
C1342      H1347   1.083       .  S
C1343      C1344   1.403       .  A
C1344      H1348   1.083       .  S
C1349      C1350   1.407       .  A
C1349      C1354   1.399       .  A
C1349      H1355   1.083       .  S
C1350      C1351   1.402       .  A
C1351      C1352   1.394       .  A
C1351      H1356   1.083       .  S
C1352      C1353   1.405       .  A
C1352      H1357   1.083       .  S
C1353      C1354   1.402       .  A
C1354      H1358   1.083       .  S
C1359      C1360   1.207       .  T
C1361      C1362   1.207       .  T
C1363      C1364   1.208       .  T
C1365      C1366   1.207       .  T
C1367      C1368   1.205       .  T
C1369      C1370   1.206       .  T
C1371      C1372   1.402       .  A
C1371      C1376   1.390       .  A
C1371      H1377   1.083       .  S
C1372      C1373   1.405       .  A
C1373      C1374   1.398       .  A
C1373      H1378   1.083       .  S
C1374      C1375   1.404       .  A
C1374      H1379   1.083       .  S
C1375      C1376   1.403       .  A
C1376      H1380   1.083       .  S
C1381      C1382   1.406       .  A
C1381      C1386   1.399       .  A
C1381      H1387   1.083       .  S
C1382      C1383   1.407       .  A
C1383      C1384   1.403       .  A
C1383      H1388   1.083       .  S
C1384      C1385   1.406       .  A
C1384      H1389   1.083       .  S
C1385      C1386   1.406       .  A
C1386      H1390   1.083       .  S
C1391      C1392   1.208       .  T
C1393      C1394   1.406       .  A
C1393      C1398   1.402       .  A
C1393      H1399   1.083       .  S
C1394      C1395   1.406       .  A
C1395      C1396   1.399       .  A
C1395      H1400   1.083       .  S
C1396      C1397   1.406       .  A
C1396      H1401   1.083       .  S
C1397      C1398   1.406       .  A
C1398      H1402   1.083       .  S
C1403      C1404   1.406       .  A
C1403      C1408   1.401       .  A
C1403      H1409   1.083       .  S
C1404      C1405   1.402       .  A
C1405      C1406   1.387       .  A
C1405      H1410   1.083       .  S
C1406      C1407   1.402       .  A
C1406      H1411   1.083       .  S
C1407      C1408   1.404       .  A
C1408      H1412   1.083       .  S
C1413      C1414   1.207       .  T
C1415      C1416   1.405       .  A
C1415      C1420   1.399       .  A
C1415      H1421   1.083       .  S
C1416      C1417   1.403       .  A
C1417      C1418   1.395       .  A
C1417      H1422   1.083       .  S
C1418      C1419   1.405       .  A
C1418      H1423   1.083       .  S
C1419      C1420   1.404       .  A
C1420      H1424   1.083       .  S
C1425      C1426   1.405       .  A
C1425      C1430   1.400       .  A
C1425      H1431   1.083       .  S
C1426      C1427   1.403       .  A
C1427      C1428   1.388       .  A
C1427      H1432   1.083       .  S
C1428      C1429   1.401       .  A
C1428      H1433   1.083       .  S
C1429      C1430   1.404       .  A
C1430      H1434   1.083       .  S
C1435      C1436   1.407       .  A
C1435      C1440   1.407       .  A
C1435      H1441   1.083       .  S
C1436      C1437   1.404       .  A
C1437      C1438   1.393       .  A
C1437      H1442   1.083       .  S
C1438      C1439   1.404       .  A
C1438      H1443   1.083       .  S
C1439      C1440   1.408       .  A
C1440      H1444   1.083       .  S
C1445      C1446   1.404       .  A
C1445      C1450   1.394       .  A
C1445      H1451   1.083       .  S
C1446      C1447   1.405       .  A
C1447      C1448   1.397       .  A
C1447      H1452   1.083       .  S
C1448      C1449   1.404       .  A
C1448      H1453   1.083       .  S
C1449      C1450   1.404       .  A
C1450      H1454   1.083       .  S
C1455      C1456   1.407       .  A
C1455      C1460   1.399       .  A
C1455      H1461   1.083       .  S
C1456      C1457   1.407       .  A
C1457      C1458   1.404       .  A
C1457      H1462   1.083       .  S
C1458      C1459   1.407       .  A
C1458      H1463   1.083       .  S
C1459      C1460   1.405       .  A
C1460      H1464   1.083       .  S
C1465      C1466   1.404       .  A
C1465      C1470   1.396       .  A
C1465      H1471   1.083       .  S
C1466      C1467   1.402       .  A
C1467      C1468   1.398       .  A
C1467      H1472   1.083       .  S
C1468      C1469   1.406       .  A
C1468      H1473   1.083       .  S
C1469      C1470   1.403       .  A
C1470      H1474   1.083       .  S
C1475      C1476   1.207       .  T
C1477      C1478   1.209       .  T
C1479      C1480   1.206       .  T
C1481      C1482   1.207       .  T
C1483      C1484   1.208       .  T
C1485      C1486   1.208       .  T
C1487      C1488   1.405       .  A
C1487      C1492   1.396       .  A
C1487      H1493   1.083       .  S
C1488      C1489   1.403       .  A
C1489      C1490   1.397       .  A
C1489      H1494   1.083       .  S
C1490      C1491   1.405       .  A
C1490      H1495   1.083       .  S
C1491      C1492   1.403       .  A
C1492      H1496   1.083       .  S
C1497      C1498   1.404       .  A
C1497      C1502   1.397       .  A
C1497      H1503   1.083       .  S
C1498      C1499   1.403       .  A
C1499      C1500   1.392       .  A
C1499      H1504   1.083       .  S
C1500      C1501   1.403       .  A
C1500      H1505   1.083       .  S
C1501      C1502   1.404       .  A
C1502      H1506   1.083       .  S
C1507      C1508   1.409       .  A
C1507      C1512   1.412       .  A
C1507      H1513   1.083       .  S
C1508      C1509   1.404       .  A
C1509      C1510   1.387       .  A
C1509      H1514   1.083       .  S
C1510      C1511   1.403       .  A
C1510      H1515   1.084       .  S
C1511      C1512   1.408       .  A
C1512      H1516   1.082       .  S
C1517      C1518   1.406       .  A
C1517      C1522   1.396       .  A
C1517      H1523   1.083       .  S
C1518      C1519   1.403       .  A
C1519      C1520   1.397       .  A
C1519      H1524   1.083       .  S
C1520      C1521   1.406       .  A
C1520      H1525   1.083       .  S
C1521      C1522   1.402       .  A
C1522      H1526   1.083       .  S
C1527      C1528   1.207       .  T
C1529      C1530   1.207       .  T
C1531      C1532   1.401       .  A
C1531      C1536   1.386       .  A
C1531      H1537   1.084       .  S
C1532      C1533   1.404       .  A
C1533      C1534   1.401       .  A
C1533      H1538   1.083       .  S
C1534      C1535   1.406       .  A
C1534      H1539   1.083       .  S
C1535      C1536   1.402       .  A
C1536      H1540   1.083       .  S
C1541      C1542   1.407       .  A
C1541      C1546   1.405       .  A
C1541      H1547   1.082       .  S
C1542      C1543   1.405       .  A
C1543      C1544   1.397       .  A
C1543      H1548   1.083       .  S
C1544      C1545   1.406       .  A
C1544      H1549   1.083       .  S
C1545      C1546   1.406       .  A
C1546      H1550   1.083       .  S
C1551      C1552   1.405       .  A
C1551      C1556   1.398       .  A
C1551      H1557   1.083       .  S
C1552      C1553   1.401       .  A
C1553      C1554   1.389       .  A
C1553      H1558   1.083       .  S
C1554      C1555   1.403       .  A
C1554      H1559   1.083       .  S
C1555      C1556   1.404       .  A
C1556      H1560   1.083       .  S
C1561      C1562   1.405       .  A
C1561      C1566   1.394       .  A
C1561      H1567   1.083       .  S
C1562      C1563   1.408       .  A
C1563      C1564   1.409       .  A
C1563      H1568   1.083       .  S
C1564      C1565   1.407       .  A
C1564      H1569   1.082       .  S
C1565      C1566   1.405       .  A
C1566      H1570   1.084       .  S
C1571      C1572   1.208       .  T
C1573      C1574   1.408       .  A
C1573      C1578   1.400       .  A
C1573      H1579   1.083       .  S
C1574      C1575   1.401       .  A
C1575      C1576   1.395       .  A
C1575      H1580   1.083       .  S
C1576      C1577   1.406       .  A
C1576      H1581   1.083       .  S
C1577      C1578   1.402       .  A
C1578      H1582   1.083       .  S
C1583      C1584   1.209       .  T
C1585      C1586   1.208       .  T
C1587      C1588   1.208       .  T
C1589      C1590   1.206       .  T
C1591      C1592   1.406       .  A
C1591      C1596   1.395       .  A
C1591      H1597   1.083       .  S
C1592      C1593   1.407       .  A
C1593      C1594   1.406       .  A
C1593      H1598   1.083       .  S
C1594      C1595   1.407       .  A
C1594      H1599   1.082       .  S
C1595      C1596   1.404       .  A
C1596      H1600   1.084       .  S
C1601      C1602   1.401       .  A
C1601      C1606   1.389       .  A
C1601      H1607   1.083       .  S
C1602      C1603   1.404       .  A
C1603      C1604   1.398       .  A
C1603      H1608   1.083       .  S
C1604      C1605   1.404       .  A
C1604      H1609   1.083       .  S
C1605      C1606   1.403       .  A
C1606      H1610   1.083       .  S
C1611      C1612   1.401       .  A
C1611      C1616   1.386       .  A
C1611      H1617   1.084       .  S
C1612      C1613   1.404       .  A
C1613      C1614   1.401       .  A
C1613      H1618   1.083       .  S
C1614      C1615   1.405       .  A
C1614      H1619   1.083       .  S
C1615      C1616   1.400       .  A
C1616      H1620   1.083       .  S
C1621      C1622   1.407       .  A
C1621      C1626   1.404       .  A
C1621      H1627   1.083       .  S
C1622      C1623   1.406       .  A
C1623      C1624   1.397       .  A
C1623      H1628   1.083       .  S
C1624      C1625   1.405       .  A
C1624      H1629   1.083       .  S
C1625      C1626   1.406       .  A
C1626      H1630   1.083       .  S
C1631      C1632   1.404       .  A
C1631      C1636   1.397       .  A
C1631      H1637   1.083       .  S
C1632      C1633   1.404       .  A
C1633      C1634   1.397       .  A
C1633      H1638   1.083       .  S
C1634      C1635   1.404       .  A
C1634      H1639   1.083       .  S
C1635      C1636   1.404       .  A
C1636      H1640   1.083       .  S
C1641      C1642   1.209       .  T
C1643      C1644   1.208       .  T
C1645      C1646   1.208       .  T
C1647      C1648   1.208       .  T
C1649      C1650   1.208       .  T
C1651      C1652   1.407       .  A
C1651      C1656   1.406       .  A
C1651      H1657   1.083       .  S
C1652      C1653   1.407       .  A
C1653      C1654   1.398       .  A
C1653      H1658   1.083       .  S
C1654      C1655   1.404       .  A
C1654      H1659   1.084       .  S
C1655      C1656   1.407       .  A
C1656      H1660   1.083       .  S
C1661      C1662   1.208       .  T
C1663      C1664   1.399       .  A
C1663      C1668   1.387       .  A
C1663      H1669   1.084       .  S
C1664      C1665   1.403       .  A
C1665      C1666   1.400       .  A
C1665      H1670   1.083       .  S
C1666      C1667   1.405       .  A
C1666      H1671   1.083       .  S
C1667      C1668   1.402       .  A
C1668      H1672   1.083       .  S
C1673      C1674   1.209       .  T
C1675      C1676   1.402       .  A
C1675      C1680   1.393       .  A
C1675      H1681   1.083       .  S
C1676      C1677   1.405       .  A
C1677      C1678   1.400       .  A
C1677      H1682   1.083       .  S
C1678      C1679   1.404       .  A
C1678      H1683   1.083       .  S
C1679      C1680   1.404       .  A
C1680      H1684   1.083       .  S
C1685      C1686   1.402       .  A
C1685      C1690   1.389       .  A
C1685      H1691   1.083       .  S
C1686      C1687   1.404       .  A
C1687      C1688   1.398       .  A
C1687      H1692   1.083       .  S
C1688      C1689   1.405       .  A
C1688      H1693   1.083       .  S
C1689      C1690   1.403       .  A
C1690      H1694   1.083       .  S
C1695      C1696   1.408       .  A
C1695      C1700   1.409       .  A
C1695      H1701   1.083       .  S
C1696      C1697   1.405       .  A
C1697      C1698   1.392       .  A
C1697      H1702   1.083       .  S
C1698      C1699   1.405       .  A
C1698      H1703   1.083       .  S
C1699      C1700   1.407       .  A
C1700      H1704   1.082       .  S
C1705      C1706   1.406       .  A
C1705      C1710   1.403       .  A
C1705      H1711   1.083       .  S
C1706      C1707   1.406       .  A
C1707      C1708   1.398       .  A
C1707      H1712   1.083       .  S
C1708      C1709   1.406       .  A
C1708      H1713   1.083       .  S
C1709      C1710   1.406       .  A
C1710      H1714   1.083       .  S
C1715      C1716   1.404       .  A
C1715      C1720   1.394       .  A
C1715      H1721   1.083       .  S
C1716      C1717   1.404       .  A
C1717      C1718   1.395       .  A
C1717      H1722   1.083       .  S
C1718      C1719   1.404       .  A
C1718      H1723   1.083       .  S
C1719      C1720   1.404       .  A
C1720      H1724   1.083       .  S
C1725      C1726   1.402       .  A
C1725      C1730   1.396       .  A
C1725      H1731   1.083       .  S
C1726      C1727   1.406       .  A
C1727      C1728   1.396       .  A
C1727      H1732   1.083       .  S
C1728      C1729   1.402       .  A
C1728      H1733   1.083       .  S
C1729      C1730   1.406       .  A
C1730      H1734   1.083       .  S
C1735      C1736   1.208       .  T
C1737      C1738   1.207       .  T
C1739      C1740   1.208       .  T
C1741      C1742   1.205       .  T
C1743      C1744   1.206       .  T
C1745      C1746   1.208       .  T
C1747      C1748   1.402       .  A
C1747      C1752   1.389       .  A
C1747      H1753   1.083       .  S
C1748      C1749   1.404       .  A
C1749      C1750   1.399       .  A
C1749      H1754   1.083       .  S
C1750      C1751   1.405       .  A
C1750      H1755   1.083       .  S
C1751      C1752   1.403       .  A
C1752      H1756   1.083       .  S
C1757      C1758   1.407       .  A
C1757      C1762   1.407       .  A
C1757      H1763   1.083       .  S
C1758      C1759   1.405       .  A
C1759      C1760   1.396       .  A
C1759      H1764   1.083       .  S
C1760      C1761   1.406       .  A
C1760      H1765   1.083       .  S
C1761      C1762   1.407       .  A
C1762      H1766   1.083       .  S
C1767      C1768   1.209       .  T
C1769      C1770   1.406       .  A
C1769      C1774   1.396       .  A
C1769      H1775   1.083       .  S
C1770      C1771   1.408       .  A
C1771      C1772   1.408       .  A
C1771      H1776   1.082       .  S
C1772      C1773   1.407       .  A
C1772      H1777   1.083       .  S
C1773      C1774   1.404       .  A
C1774      H1778   1.083       .  S
C1779      C1780   1.401       .  A
C1779      C1784   1.387       .  A
C1779      H1785   1.083       .  S
C1780      C1781   1.405       .  A
C1781      C1782   1.399       .  A
C1781      H1786   1.083       .  S
C1782      C1783   1.404       .  A
C1782      H1787   1.083       .  S
C1783      C1784   1.401       .  A
C1784      H1788   1.083       .  S
C1789      C1790   1.208       .  T
C1791      C1792   1.407       .  A
C1791      C1796   1.397       .  A
C1791      H1797   1.083       .  S
C1792      C1793   1.402       .  A
C1793      C1794   1.397       .  A
C1793      H1798   1.083       .  S
C1794      C1795   1.406       .  A
C1794      H1799   1.083       .  S
C1795      C1796   1.402       .  A
C1796      H1800   1.083       .  S
