geometry optimzed in LAMMPS
_audit_creation_date              2020-11-30 
_audit_creation_method            'lammps2cif' 
_symmetry_space_group_name_H-M    'P1' 
_symmetry_Int_Tables_number       1 
_symmetry_cell_setting            triclinic 
loop_ 
_symmetry_equiv_pos_as_xyz 
  x,y,z 
_cell_length_a                    26.400365908388007 
_cell_length_b                    26.83227630488979 
_cell_length_c                    31.528786766386684 
_cell_angle_alpha                 89.58305863161412 
_cell_angle_beta                  89.81500279882358 
_cell_angle_gamma                 91.10337343325382 
loop_ 
_atom_site_label 
_atom_site_type_symbol 
_atom_site_fract_x 
_atom_site_fract_y 
_atom_site_fract_z 
_atom_site_charge 
O1          O  0.36342107  0.48808750  0.42568721    -0.75020
O2          O  0.35353680  0.06572592  0.45371374    -0.53930
C3          C  0.33794744  0.02733426  0.43206148     0.78710
O4          O  0.47842630  0.38058084  0.58202923    -0.59620
O5          O  0.05134765  0.36254448  0.54634931    -0.52650
C6          C  0.01444087  0.35166497  0.57222486     0.70720
O7          O  0.36629966  0.49575558  0.57866575    -0.74180
O8          O  0.35379319  0.06957465  0.54382249    -0.54740
C9          C  0.33984818  0.03358448  0.56922123     0.76730
O10         O  0.48057054  0.37847068  0.42238882    -0.59320
O11         O  0.05593064  0.36366168  0.45545993    -0.52440
C12         C  0.01867337  0.35141688  0.43072905     0.73320
Zr13       Zr  0.44662560  0.45812456  0.43889728     2.54710
O14         O  0.38226829  0.39238833  0.43309379    -0.79890
O15         O  0.45411013  0.46856900  0.36232325    -0.93310
Zr16       Zr  0.44670512  0.46059183  0.56349740     2.64680
O17         O  0.37720146  0.39970988  0.56912308    -0.98260
O18         O  0.45506616  0.46982826  0.63996340    -0.80320
O19         O  0.41265860  0.49375031  0.50056037    -0.83680
O20         O  0.47972110  0.42403282  0.50178816    -2.18390
O21         O  0.11115427  0.99807265  0.40765673    -0.67070
O22         O  0.14791573  0.45629082  0.46052698    -0.51630
C23         C  0.15079170  0.48318985  0.42649036     0.71700
O24         O  0.02485751  0.14086712  0.57454364    -0.59980
O25         O  0.44776087  0.15439903  0.54389541    -0.51950
C26         C  0.48617638  0.16731485  0.56725240     0.73500
O27         O  0.13188540  0.02230124  0.57975771    -0.71370
O28         O  0.14498353  0.44766770  0.54731656    -0.50050
C29         C  0.15849584  0.48414201  0.57177658     0.74890
O30         O  0.02411889  0.13918160  0.41993338    -0.66700
O31         O  0.44872441  0.15498626  0.45286406    -0.53900
C32         C  0.48677734  0.16709577  0.42846425     0.73270
Zr33       Zr  0.05301433  0.05718753  0.43594275     2.77540
O34         O  0.12986606  0.10912324  0.43440654    -0.97450
O35         O  0.04556683  0.06550394  0.35927090    -0.78270
Zr36       Zr  0.05279766  0.05875187  0.56110259     2.70070
O37         O  0.12157780  0.11953779  0.56956822    -0.79520
O38         O  0.03732309  0.05180819  0.63704248    -0.98600
Zr39       Zr  0.42997003  0.08114618  0.49839887     2.21500
Zr40       Zr  0.06979707  0.43668066  0.50149383     2.11130
O41         O  0.08765072  0.02475255  0.49921186    -2.47290
O42         O  0.01975555  0.09301264  0.49800417    -0.79310
O43         O  0.03526116  0.47039465  0.43712313    -0.71510
O44         O  0.46394155  0.04716947  0.56277984    -2.32460
O45         O  0.46393052  0.04486295  0.43517377    -2.28670
O46         O  0.03571101  0.47224179  0.56482502    -0.73270
H47         H  0.47084596  0.38897688  0.50215522     0.78730
H48         H  0.44951788  0.06280406  0.58742211     0.79820
H49         H  0.12359286  0.03192590  0.49935402     0.82040
H50         H  0.44930284  0.05941900  0.41002785     0.79650
H51         H  0.43054455  0.49574407  0.64766677     0.42680
H52         H  0.05521033  0.02133864  0.64574171     0.41650
H53         H  0.13499598  0.12487957  0.54048833     0.41330
H54         H  0.15593720  0.08989701  0.44950543     0.39270
H55         H  0.03961615  0.03107372  0.34910381     0.42400
H56         H  0.42627062  0.49100137  0.35443657     0.37180
H57         H  0.37261510  0.38456261  0.46281480     0.43300
H58         H  0.38615633  0.37254488  0.54954093     0.39710
H59         H  0.14084143  0.10890963  0.40434768     0.44630
H60         H  0.44369858  0.43576148  0.35071346     0.43360
H61         H  0.38010679  0.38496377  0.59787687     0.43490
H62         H  0.05739193  0.07957100  0.64948680     0.43850
C63         C  0.50278590  0.26228680  0.34085991     0.03400
C64         C  0.49077654  0.21782492  0.36278509    -0.12750
C65         C  0.99020918  0.21614436  0.40735221     0.00900
C66         C  0.00451364  0.25900038  0.43013369    -0.11270
C67         C  0.01710103  0.30358053  0.40852999     0.03390
C68         C  0.51423186  0.30515554  0.36416498    -0.10700
H69         H  0.48256483  0.18412359  0.34510768     0.08990
H70         H  0.00521690  0.25780651  0.46432659     0.06520
H71         H  0.51854517  0.34064173  0.34791492     0.06360
C72         C  0.24657274  0.01672390  0.34112591     0.03400
C73         C  0.28998127  0.02808260  0.36523474    -0.12750
C74         C  0.28871842  0.02643340  0.40987835     0.00900
C75         C  0.24413370  0.00867996  0.43035639    -0.11270
C76         C  0.20001960  0.99813844  0.40665830     0.03390
C77         C  0.20111141  0.00657602  0.36266539    -0.10700
H78         H  0.32583169  0.03551508  0.34934833     0.08990
H79         H  0.24393871  0.00264288  0.46419787     0.06520
H80         H  0.16656490  0.00281053  0.34465176     0.06360
C81         C  0.24768482  0.01527487  0.65795252     0.03400
C82         C  0.28777195  0.03689388  0.63406725    -0.12750
C83         C  0.28984533  0.03180780  0.58980445     0.00900
C84         C  0.24936220  0.00789641  0.56890959    -0.11270
C85         C  0.20857389  0.98680671  0.59194000     0.03390
C86         C  0.21002626  0.98767613  0.63640153    -0.10700
H87         H  0.31896211  0.05572346  0.64992823     0.08990
H88         H  0.24960222  0.00576381  0.53475856     0.06520
H89         H  0.17928354  0.97002518  0.65389898     0.06360
C90         C  0.49283606  0.25625163  0.65884618     0.03400
C91         C  0.48784238  0.21270258  0.63473480    -0.12750
C92         C  0.48749018  0.21463616  0.59015117     0.00900
C93         C  0.50048494  0.25945240  0.56932656    -0.11270
C94         C  0.51004491  0.30265851  0.59292583     0.03390
C95         C  0.50308648  0.30125042  0.63702112    -0.10700
H96         H  0.48543713  0.17682731  0.65020652     0.08990
H97         H  0.00305638  0.26072816  0.53518419     0.06520
H98         H  0.50529155  0.33600360  0.65428559     0.06360
C99         C  0.24529225  0.02200964  0.15693179     0.03400
C100        C  0.25945061  0.48081368  0.13298006    -0.12750
C101        C  0.25451523  0.48102123  0.08876701     0.00900
C102        C  0.23441139  0.02312472  0.06840283    -0.11270
C103        C  0.22049116  0.06511342  0.09198697     0.03390
C104        C  0.22588294  0.06394568  0.13635703    -0.10700
H105        H  0.27255125  0.44758914  0.14903092     0.08990
H106        H  0.23024774  0.02345624  0.03445112     0.06520
H107        H  0.21646308  0.09646691  0.15477115     0.06360
O108        O  0.21709955  0.40665984  0.92521798    -0.75020
O109        O  0.29486453  0.42078065  0.95515117    -0.53930
C110        C  0.25627581  0.43389851  0.93254018     0.78710
O111        O  0.10608405  0.28369500  0.08027800    -0.59620
O112        O  0.08969003  0.21097070  0.04492462    -0.52650
C113        C  0.07774241  0.24634080  0.07065716     0.70720
O114        O  0.21714518  0.40504279  0.07512078    -0.74180
O115        O  0.29470251  0.42010895  0.04448119    -0.54740
C116        C  0.25608987  0.43267429  0.06729016     0.76730
O117        O  0.10555530  0.28755714  0.92144094    -0.59320
O118        O  0.09025312  0.21265909  0.95483845    -0.52440
C119        C  0.07778348  0.24937867  0.93029684     0.73320
Zr120      Zr  0.18617788  0.32360965  0.93836500     2.54710
O121        O  0.11905086  0.38438097  0.93438772    -0.79890
O122        O  0.19500990  0.32029777  0.86149953    -0.93310
Zr123      Zr  0.18616637  0.32195785  0.06270941     2.64620
O124        O  0.12095255  0.38465597  0.06910022    -0.98260
O125        O  0.19681667  0.31501510  0.13921454    -0.80320
O126        O  0.22084715  0.35805374  0.00050654    -0.83680
O127        O  0.15102454  0.28772423  0.00051838    -2.18390
O128        O  0.25325327  0.14571661  0.91754467    -0.67070
O129        O  0.18125506  0.12562082  0.95484585    -0.51630
C130        C  0.21708131  0.11580328  0.92799585     0.71700
O131        O  0.36998461  0.25697669  0.07735750    -0.59980
O132        O  0.38540448  0.33255685  0.04533177    -0.51950
C133        C  0.39787919  0.29525211  0.06930762     0.73500
O134        O  0.25420816  0.14328613  0.08058159    -0.71370
O135        O  0.18059034  0.12521146  0.04535899    -0.50050
C136        C  0.21703116  0.11430605  0.07119984     0.74890
O137        O  0.36894376  0.25936489  0.92069084    -0.66700
O138        O  0.38567483  0.33291344  0.95458238    -0.53900
C139        C  0.39740583  0.29673583  0.92947981     0.73270
Zr140      Zr  0.28784359  0.22503887  0.93727301     2.77540
O141        O  0.35456500  0.16359315  0.93360049    -0.97450
O142        O  0.28097514  0.23551403  0.86074373    -0.78270
Zr143      Zr  0.28788159  0.22375385  0.06212575     2.70070
O144        O  0.35221542  0.16059440  0.06978444    -0.79520
O145        O  0.27766231  0.23444637  0.13814770    -0.98600
Zr146      Zr  0.31009524  0.34624470  0.00000347     2.21500
Zr147      Zr  0.16544325  0.19963791  0.99992852     2.11130
O148        O  0.25480244  0.18811658  0.99969966    -2.47290
O149        O  0.32331558  0.25866943  0.99965912    -0.79310
O150        O  0.19955791  0.23667992  0.93605928    -0.71510
O151        O  0.27462137  0.31043963  0.06392288    -2.32460
O152        O  0.27454255  0.31179156  0.93635528    -2.28670
O153        O  0.19960249  0.23500511  0.06381296    -0.73270
H154        H  0.11525518  0.29446333  0.00070171     0.78730
H155        H  0.28960973  0.32522276  0.08888293     0.79820
H156        H  0.26287311  0.15318895  0.99957494     0.82040
H157        H  0.28975361  0.32726931  0.91153796     0.79650
H158        H  0.21549905  0.34581640  0.14735673     0.42680
H159        H  0.24448043  0.21842442  0.14488964     0.41650
H160        H  0.36101028  0.15162451  0.04028957     0.41330
H161        H  0.34347769  0.13610603  0.95281396     0.39270
H162        H  0.24703019  0.22167962  0.85366814     0.42400
H163        H  0.23043419  0.33086165  0.85547119     0.37180
H164        H  0.11180046  0.39262642  0.96433435     0.43300
H165        H  0.09380554  0.37416172  0.04929060     0.39710
H166        H  0.35223315  0.14944868  0.90473026     0.44630
H167        H  0.17469905  0.34849124  0.85112815     0.43360
H168        H  0.10616828  0.37962658  0.09775697     0.43490
H169        H  0.30276153  0.21166091  0.15048433     0.43850
C170        C  0.48638761  0.26944154  0.15746833     0.03400
C171        C  0.02596860  0.24717119  0.13518570    -0.12750
C172        C  0.02772505  0.24845831  0.09081428     0.00900
C173        C  0.48758035  0.26994138  0.06846962    -0.11270
C174        C  0.44743512  0.29236672  0.09012128     0.03390
C175        C  0.44832527  0.29366056  0.13465840    -0.10700
H176        H  0.05748036  0.23168950  0.15252932     0.08990
H177        H  0.48775413  0.26946349  0.03432054     0.06520
H178        H  0.41814995  0.31197232  0.15132341     0.06360
C179        C  0.24605076  0.02439632  0.84233158     0.03400
C180        C  0.25906377  0.48249059  0.86630531    -0.12750
C181        C  0.25492992  0.48245597  0.91067472     0.00900
C182        C  0.23535659  0.02457509  0.93104365    -0.11270
C183        C  0.22128533  0.06681161  0.90738844     0.03390
C184        C  0.22694142  0.06617470  0.86302355    -0.10700
H185        H  0.26982521  0.44869852  0.85022755     0.08990
H186        H  0.23149714  0.02463435  0.96503971     0.06520
H187        H  0.21814189  0.09914823  0.84457383     0.06360
C188        C  0.48733256  0.26839902  0.84261948     0.03400
C189        C  0.02689039  0.24771482  0.86578453    -0.12750
C190        C  0.02816096  0.25149703  0.90999313     0.00900
C191        C  0.48810917  0.27480972  0.93114457    -0.11270
C192        C  0.44687585  0.29369015  0.90842585     0.03390
C193        C  0.44718913  0.29073573  0.86393075    -0.10700
H194        H  0.05861325  0.23170393  0.84910803     0.08990
H195        H  0.48885722  0.27795986  0.96517025     0.06520
H196        H  0.41486391  0.30346706  0.84599775     0.06360
C197        C  0.45553859  0.23218552  0.77577869    -0.05510
C198        C  0.48811464  0.26614377  0.79590430     0.00420
C199        C  0.02124156  0.29670897  0.77159032    -0.08150
C200        C  0.02371210  0.28919070  0.72771413    -0.05530
C201        C  0.49031936  0.25608900  0.70650778     0.00400
C202        C  0.45445434  0.22758057  0.73129223    -0.08060
C203        C  0.41446298  0.19253712  0.71266292     0.62320
H204        H  0.43046702  0.20931246  0.79543026     0.13010
H205        H  0.05181675  0.31010532  0.70955153     0.13020
C206        C  0.05210507  0.33862075  0.79173658     0.62550
F207        F  0.37443317  0.18483384  0.74060525    -0.22620
F208        F  0.43535296  0.14663168  0.70484659    -0.19950
F209        F  0.39446155  0.21205463  0.67578570    -0.19620
F210        F  0.08733675  0.31932726  0.81927827    -0.19680
F211        F  0.02016088  0.36945821  0.81388609    -0.20000
F212        F  0.07772135  0.36746252  0.76171287    -0.22670
C213        C  0.29198575  0.01545209  0.72784424    -0.05510
C214        C  0.24626042  0.02041048  0.70531093     0.00420
C215        C  0.20113352  0.02995326  0.72868610    -0.08150
C216        C  0.20276895  0.02839570  0.77320162    -0.05530
C217        C  0.24827374  0.02327203  0.79530171     0.00400
C218        C  0.29414919  0.01913978  0.77234136    -0.08060
C219        C  0.34527341  0.02115168  0.79435345     0.62320
H220        H  0.32644531  0.00846060  0.71038640     0.13010
H221        H  0.16808272  0.03270127  0.79122141     0.13020
C222        C  0.15085744  0.04344200  0.70870653     0.62550
F223        F  0.38489453  0.02438502  0.76550738    -0.22620
F224        F  0.35173438  0.47887135  0.81881089    -0.19950
F225        F  0.34817710  0.06273570  0.81999931    -0.19620
F226        F  0.12058689  0.50102422  0.70540057    -0.19680
F227        F  0.15722681  0.06558081  0.66928506    -0.20000
F228        F  0.12578822  0.07726473  0.73379877    -0.22670
C229        C  0.22030820  0.48325647  0.22511411    -0.05510
C230        C  0.24897610  0.01996582  0.20376531     0.00420
C231        C  0.28096422  0.05231396  0.22720846    -0.08150
C232        C  0.27801919  0.05101819  0.27177076    -0.05530
C233        C  0.24864498  0.01467070  0.29362602     0.00400
C234        C  0.22198539  0.47782072  0.26939766    -0.08060
C235        C  0.19606732  0.43147170  0.28808112     0.62320
H236        H  0.19723179  0.45760176  0.20662868     0.13010
H237        H  0.29902856  0.07879836  0.28963593     0.13020
C238        C  0.31877034  0.08784419  0.20609768     0.62550
F239        F  0.20010865  0.39180632  0.26049366    -0.22620
F240        F  0.14516831  0.44036473  0.29426027    -0.19950
F241        F  0.21792547  0.41684082  0.32584059    -0.19620
F242        F  0.29580142  0.13264813  0.19780530    -0.19680
F243        F  0.33718527  0.06855043  0.16863256    -0.20000
F244        F  0.35995173  0.09622869  0.23232990    -0.22670
C245        C  0.45582316  0.24567643  0.27442594    -0.05510
C246        C  0.49991929  0.26466815  0.29374230     0.00420
C247        C  0.03937554  0.28523213  0.26789215    -0.08150
C248        C  0.03162858  0.28863412  0.22392481    -0.05530
C249        C  0.48766693  0.26941782  0.20459923     0.00400
C250        C  0.44935532  0.24651988  0.23015563    -0.08060
C251        C  0.40253846  0.22161727  0.21129230     0.62320
H252        H  0.42610230  0.23013151  0.29455622     0.13010
H253        H  0.06077905  0.30560644  0.20395736     0.13020
C254        C  0.09035198  0.30237124  0.28541870     0.62550
F255        F  0.37524580  0.19481576  0.24157794    -0.22620
F256        F  0.41629862  0.18901105  0.17966310    -0.19950
F257        F  0.37092942  0.25715026  0.19481877    -0.19620
F258        F  0.10521301  0.27211080  0.31864409    -0.19680
F259        F  0.08738515  0.35099191  0.29912672    -0.20000
F260        F  0.12776010  0.30059147  0.25459692    -0.22670
O261        O  0.36342106  0.98808741  0.42568736    -0.75020
O262        O  0.35353678  0.56572594  0.45371371    -0.53930
C263        C  0.33794742  0.52733433  0.43206138     0.78710
O264        O  0.47842628  0.88058083  0.58202924    -0.59620
O265        O  0.05134766  0.86254450  0.54634930    -0.52650
C266        C  0.01444089  0.85166498  0.57222486     0.70720
O267        O  0.36629965  0.99575559  0.57866574    -0.74180
O268        O  0.35379318  0.56957463  0.54382249    -0.54740
C269        C  0.33984817  0.53358446  0.56922124     0.76730
O270        O  0.48057054  0.87847068  0.42238883    -0.59320
O271        O  0.05593063  0.86366169  0.45545992    -0.52440
C272        C  0.01867337  0.85141688  0.43072905     0.73320
Zr273      Zr  0.44662564  0.95812457  0.43889729     2.54710
O274        O  0.38226836  0.89238833  0.43309365    -0.79890
O275        O  0.45411015  0.96856912  0.36232327    -0.93310
Zr276      Zr  0.44670513  0.96059184  0.56349741     2.64680
O277        O  0.37720145  0.89970990  0.56912308    -0.98260
O278        O  0.45506615  0.96982827  0.63996341    -0.80320
O279        O  0.41265862  0.99375032  0.50056037    -0.83680
O280        O  0.47972110  0.92403281  0.50178817    -2.18390
O281        O  0.11115419  0.49807249  0.40765679    -0.67070
O282        O  0.14791569  0.95629087  0.46052695    -0.51630
C283        C  0.15079172  0.98318991  0.42649033     0.71700
O284        O  0.02485754  0.64086711  0.57454366    -0.59980
O285        O  0.44776084  0.65439903  0.54389542    -0.51950
C286        C  0.48617634  0.66731485  0.56725241     0.73500
O287        O  0.13188540  0.52230122  0.57975774    -0.71370
O288        O  0.14498352  0.94766772  0.54731654    -0.50050
C289        C  0.15849584  0.98414204  0.57177655     0.74890
O290        O  0.02411892  0.63918159  0.41993339    -0.66700
O291        O  0.44872439  0.65498626  0.45286407    -0.53900
C292        C  0.48677733  0.66709577  0.42846428     0.73270
Zr293      Zr  0.05301438  0.55718753  0.43594277     2.77540
O294        O  0.12986615  0.60912319  0.43440661    -0.97450
O295        O  0.04556702  0.56550400  0.35927092    -0.78270
Zr296      Zr  0.05279767  0.55875185  0.56110261     2.70070
O297        O  0.12157781  0.61953776  0.56956828    -0.79520
O298        O  0.03732308  0.55180815  0.63704250    -0.98600
Zr299      Zr  0.42997000  0.58114617  0.49839887     2.21500
Zr300      Zr  0.06979706  0.93668068  0.50149382     2.11130
O301        O  0.08765075  0.52475254  0.49921189    -2.47290
O302        O  0.01975558  0.59301263  0.49800419    -0.79310
O303        O  0.03526114  0.97039465  0.43712312    -0.71510
O304        O  0.46394154  0.54716947  0.56277984    -2.32460
O305        O  0.46393050  0.54486295  0.43517377    -2.28670
O306        O  0.03571101  0.97224181  0.56482500    -0.73270
H307        H  0.47084596  0.88897687  0.50215523     0.78730
H308        H  0.44951786  0.56280405  0.58742210     0.79820
H309        H  0.12359290  0.53192588  0.49935405     0.82040
H310        H  0.44930282  0.55941900  0.41002784     0.79650
H311        H  0.43054452  0.99574406  0.64766678     0.42680
H312        H  0.05521029  0.52133859  0.64574172     0.41650
H313        H  0.13499602  0.62487954  0.54048840     0.41330
H314        H  0.15593727  0.58989694  0.44950548     0.39270
H315        H  0.03961618  0.53107381  0.34910382     0.42400
H316        H  0.42627048  0.99100132  0.35443659     0.37180
H317        H  0.37261524  0.88456244  0.46281464     0.43300
H318        H  0.38615630  0.87254491  0.54954093     0.39710
H319        H  0.14084150  0.60890962  0.40434774     0.44630
H320        H  0.44369883  0.93576155  0.35071345     0.43360
H321        H  0.38010678  0.88496378  0.59787687     0.43490
H322        H  0.05739192  0.57957095  0.64948683     0.43850
C323        C  0.50278592  0.76228677  0.34085992     0.03400
C324        C  0.49077656  0.71782490  0.36278512    -0.12750
C325        C  0.99020921  0.71614435  0.40735222     0.00900
C326        C  0.00451365  0.75900038  0.43013370    -0.11270
C327        C  0.01710104  0.80358053  0.40852999     0.03390
C328        C  0.51423186  0.80515552  0.36416499    -0.10700
H329        H  0.48256487  0.68412356  0.34510772     0.08990
H330        H  0.00521691  0.75780651  0.46432659     0.06520
H331        H  0.51854518  0.84064170  0.34791492     0.06360
C332        C  0.24657252  0.51672425  0.34112589     0.03400
C333        C  0.28998110  0.52808292  0.36523467    -0.12750
C334        C  0.28871836  0.52643350  0.40987829     0.00900
C335        C  0.24413370  0.50867994  0.43035635    -0.11270
C336        C  0.20001954  0.49813848  0.40665830     0.03390
C337        C  0.20111125  0.50657621  0.36266541    -0.10700
H338        H  0.32583145  0.53551555  0.34934820     0.08990
H339        H  0.24393879  0.50264273  0.46419782     0.06520
H340        H  0.16656472  0.50281074  0.34465181     0.06360
C341        C  0.24768483  0.51527487  0.65795254     0.03400
C342        C  0.28777195  0.53689387  0.63406726    -0.12750
C343        C  0.28984533  0.53180778  0.58980446     0.00900
C344        C  0.24936220  0.50789639  0.56890961    -0.11270
C345        C  0.20857389  0.48680669  0.59194003     0.03390
C346        C  0.21002626  0.48767613  0.63640155    -0.10700
H347        H  0.31896212  0.55572345  0.64992824     0.08990
H348        H  0.24960222  0.50576378  0.53475858     0.06520
H349        H  0.17928353  0.47002520  0.65389901     0.06360
C350        C  0.49283606  0.75625163  0.65884620     0.03400
C351        C  0.48784236  0.71270258  0.63473481    -0.12750
C352        C  0.48749015  0.71463615  0.59015118     0.00900
C353        C  0.50048489  0.75945240  0.56932657    -0.11270
C354        C  0.51004488  0.80265850  0.59292584     0.03390
C355        C  0.50308647  0.80125042  0.63702113    -0.10700
H356        H  0.48543712  0.67682731  0.65020654     0.08990
H357        H  0.00305638  0.76072817  0.53518419     0.06520
H358        H  0.50529155  0.83600360  0.65428559     0.06360
C359        C  0.24529247  0.52200947  0.15693176     0.03400
C360        C  0.25945054  0.98081383  0.13298018    -0.12750
C361        C  0.25451529  0.98102129  0.08876710     0.00900
C362        C  0.23441130  0.52312470  0.06840282    -0.11270
C363        C  0.22049127  0.56511341  0.09198702     0.03390
C364        C  0.22588324  0.56394562  0.13635707    -0.10700
H365        H  0.27255116  0.94758933  0.14903111     0.08990
H366        H  0.23024750  0.52345624  0.03445112     0.06520
H367        H  0.21646367  0.59646690  0.15477124     0.06360
O368        O  0.21709962  0.90665987  0.92521801    -0.75020
O369        O  0.29486459  0.92078070  0.95515120    -0.53930
C370        C  0.25627588  0.93389854  0.93254020     0.78710
O371        O  0.10608412  0.78369505  0.08027802    -0.59620
O372        O  0.08969010  0.71097074  0.04492466    -0.52650
C373        C  0.07774248  0.74634084  0.07065718     0.70720
O374        O  0.21714531  0.90504280  0.07512093    -0.74180
O375        O  0.29470258  0.92010901  0.04448127    -0.54740
C376        C  0.25608997  0.93267433  0.06729029     0.76730
O377        O  0.10555538  0.78755719  0.92144098    -0.59320
O378        O  0.09025319  0.71265914  0.95483848    -0.52440
C379        C  0.07778355  0.74937872  0.93029688     0.73320
Zr380      Zr  0.18617795  0.82360969  0.93836505     2.54710
O381        O  0.11905093  0.88438101  0.93438780    -0.79890
O382        O  0.19500996  0.82029783  0.86149958    -0.93310
Zr383      Zr  0.18616645  0.82195788  0.06270946     2.64620
O384        O  0.12095263  0.88465602  0.06910023    -0.98260
O385        O  0.19681669  0.81501510  0.13921459    -0.80320
O386        O  0.22084722  0.85805380  0.00050659    -0.83680
O387        O  0.15102463  0.78772426  0.00051843    -2.18390
O388        O  0.25325339  0.64571662  0.91754476    -0.67070
O389        O  0.18125513  0.62562085  0.95484588    -0.51630
C390        C  0.21708140  0.61580330  0.92799591     0.71700
O391        O  0.36998465  0.75697674  0.07735756    -0.59980
O392        O  0.38540455  0.83255689  0.04533181    -0.51950
C393        C  0.39787925  0.79525215  0.06930767     0.73500
O394        O  0.25420825  0.64328615  0.08058166    -0.71370
O395        O  0.18059044  0.62521147  0.04535904    -0.50050
C396        C  0.21703125  0.61430607  0.07119991     0.74890
O397        O  0.36894381  0.75936497  0.92069086    -0.66700
O398        O  0.38567490  0.83291350  0.95458242    -0.53900
C399        C  0.39740589  0.79673590  0.92947984     0.73270
Zr400      Zr  0.28784366  0.72503892  0.93727305     2.77540
O401        O  0.35456513  0.66359327  0.93360043    -0.97450
O402        O  0.28097507  0.73551408  0.86074378    -0.78270
Zr403      Zr  0.28788166  0.72375388  0.06212579     2.70070
O404        O  0.35221552  0.66059445  0.06978442    -0.79520
O405        O  0.27766242  0.73444626  0.13814776    -0.98600
Zr406      Zr  0.31009531  0.84624476  0.00000352     2.21500
Zr407      Zr  0.16544332  0.69963794  0.99992856     2.11130
O408        O  0.25480252  0.68811661  0.99969970    -2.47290
O409        O  0.32331564  0.75866948  0.99965916    -0.79310
O410        O  0.19955798  0.73667996  0.93605933    -0.71510
O411        O  0.27462144  0.81043966  0.06392293    -2.32460
O412        O  0.27454262  0.81179161  0.93635534    -2.28670
O413        O  0.19960257  0.73500515  0.06381301    -0.73270
H414        H  0.11525526  0.79446336  0.00070175     0.78730
H415        H  0.28960981  0.82522278  0.08888298     0.79820
H416        H  0.26287319  0.65318897  0.99957498     0.82040
H417        H  0.28975368  0.82726936  0.91153802     0.79650
H418        H  0.21549913  0.84581637  0.14735680     0.42680
H419        H  0.24448033  0.71842471  0.14488962     0.41650
H420        H  0.36101037  0.65162459  0.04028953     0.41330
H421        H  0.34347790  0.63610615  0.95281392     0.39270
H422        H  0.24703017  0.72167955  0.85366821     0.42400
H423        H  0.23043425  0.83086171  0.85547124     0.37180
H424        H  0.11180059  0.89262651  0.96433443     0.43300
H425        H  0.09380564  0.87416177  0.04929060     0.39710
H426        H  0.35223323  0.64944880  0.90473021     0.44630
H427        H  0.17469910  0.84849129  0.85112821     0.43360
H428        H  0.10616836  0.87962665  0.09775697     0.43490
H429        H  0.30276132  0.71166041  0.15048435     0.43850
C430        C  0.48638769  0.76944151  0.15746835     0.03400
C431        C  0.02596867  0.74717121  0.13518572    -0.12750
C432        C  0.02772512  0.74845836  0.09081430     0.00900
C433        C  0.48758042  0.76994147  0.06846965    -0.11270
C434        C  0.44743517  0.79236675  0.09012133     0.03390
C435        C  0.44832530  0.79366050  0.13465846    -0.10700
H436        H  0.05748044  0.73168953  0.15252933     0.08990
H437        H  0.48775421  0.76946364  0.03432057     0.06520
H438        H  0.41814993  0.81197215  0.15132350     0.06360
C439        C  0.24605074  0.52439635  0.84233159     0.03400
C440        C  0.25906385  0.98249060  0.86630531    -0.12750
C441        C  0.25492998  0.98245600  0.91067473     0.00900
C442        C  0.23535661  0.52457509  0.93104367    -0.11270
C443        C  0.22128539  0.56681163  0.90738847     0.03390
C444        C  0.22694147  0.56617475  0.86302359    -0.10700
H445        H  0.26982534  0.94869853  0.85022757     0.08990
H446        H  0.23149719  0.52463433  0.96503973     0.06520
H447        H  0.21814197  0.59914830  0.84457388     0.06360
C448        C  0.48733261  0.76839910  0.84261950     0.03400
C449        C  0.02689048  0.74771487  0.86578455    -0.12750
C450        C  0.02816103  0.75149708  0.90999315     0.00900
C451        C  0.48810923  0.77480980  0.93114459    -0.11270
C452        C  0.44687590  0.79369023  0.90842587     0.03390
C453        C  0.44718919  0.79073580  0.86393077    -0.10700
H454        H  0.05861335  0.73170399  0.84910806     0.08990
H455        H  0.48885729  0.77795994  0.96517027     0.06520
H456        H  0.41486396  0.80346713  0.84599777     0.06360
C457        C  0.45553862  0.73218557  0.77577872    -0.05510
C458        C  0.48811468  0.76614382  0.79590432     0.00420
C459        C  0.02124164  0.79670901  0.77159032    -0.08150
C460        C  0.02371219  0.78919074  0.72771413    -0.05530
C461        C  0.49031938  0.75608902  0.70650780     0.00400
C462        C  0.45445436  0.72758060  0.73129226    -0.08060
C463        C  0.41446299  0.69253715  0.71266297     0.62320
H464        H  0.43046705  0.70931252  0.79543030     0.13010
H465        H  0.05181683  0.81010535  0.70955153     0.13020
C466        C  0.05210515  0.83862080  0.79173657     0.62550
F467        F  0.37443320  0.68483387  0.74060531    -0.22620
F468        F  0.43535297  0.64663171  0.70484663    -0.19950
F469        F  0.39446155  0.71205465  0.67578575    -0.19620
F470        F  0.08733683  0.81932732  0.81927827    -0.19680
F471        F  0.02016096  0.86945826  0.81388608    -0.20000
F472        F  0.07772143  0.86746256  0.76171286    -0.22670
C473        C  0.29198574  0.51545208  0.72784426    -0.05510
C474        C  0.24626042  0.52041051  0.70531094     0.00420
C475        C  0.20113353  0.52995334  0.72868611    -0.08150
C476        C  0.20276894  0.52839579  0.77320162    -0.05530
C477        C  0.24827373  0.52327207  0.79530172     0.00400
C478        C  0.29414918  0.51913977  0.77234138    -0.08060
C479        C  0.34527339  0.52115160  0.79435348     0.62320
H480        H  0.32644530  0.50846056  0.71038643     0.13010
H481        H  0.16808272  0.53270140  0.79122141     0.13020
C482        C  0.15085747  0.54344211  0.70870652     0.62550
F483        F  0.38489452  0.52438491  0.76550743    -0.22620
F484        F  0.35173446  0.97887145  0.81881087    -0.19950
F485        F  0.34817712  0.56273560  0.81999936    -0.19620
F486        F  0.12058689  0.00102410  0.70540056    -0.19680
F487        F  0.15722686  0.56558088  0.66928504    -0.20000
F488        F  0.12578826  0.57726486  0.73379874    -0.22670
C489        C  0.22030750  0.98325687  0.22511413    -0.05510
C490        C  0.24897655  0.51996559  0.20376526     0.00420
C491        C  0.28096395  0.55231439  0.22720846    -0.08150
C492        C  0.27801844  0.55101895  0.27177074    -0.05530
C493        C  0.24864469  0.51467111  0.29362601     0.00400
C494        C  0.22198509  0.97782076  0.26939765    -0.08060
C495        C  0.19606696  0.93147171  0.28808097     0.62320
H496        H  0.19723075  0.95760245  0.20662871     0.13010
H497        H  0.29902740  0.57879945  0.28963589     0.13020
C498        C  0.31876986  0.58784510  0.20609799     0.62550
F499        F  0.20010848  0.89180641  0.26049345    -0.22620
F500        F  0.14516791  0.94036473  0.29425994    -0.19950
F501        F  0.21792489  0.91684074  0.32584050    -0.19620
F502        F  0.29580151  0.63265006  0.19780856    -0.19680
F503        F  0.33718282  0.56855358  0.16863132    -0.20000
F504        F  0.35995255  0.59622694  0.23232938    -0.22670
C505        C  0.45582327  0.74567624  0.27442594    -0.05510
C506        C  0.49991934  0.76466809  0.29374232     0.00420
C507        C  0.03937557  0.78523215  0.26789217    -0.08150
C508        C  0.03162861  0.78863415  0.22392483    -0.05530
C509        C  0.48766701  0.76941775  0.20459925     0.00400
C510        C  0.44935547  0.74651965  0.23015562    -0.08060
C511        C  0.40253875  0.72161683  0.21129226     0.62320
H512        H  0.42610244  0.73013124  0.29455619     0.13010
H513        H  0.06077906  0.80560653  0.20395739     0.13020
C514        C  0.09035200  0.80237130  0.28541871     0.62550
F515        F  0.37524625  0.69481509  0.24157786    -0.22620
F516        F  0.41629908  0.68901077  0.17966301    -0.19950
F517        F  0.37092951  0.75714969  0.19481878    -0.19620
F518        F  0.10521303  0.77211092  0.31864414    -0.19680
F519        F  0.08738513  0.85099199  0.29912668    -0.20000
F520        F  0.12776013  0.80059150  0.25459694    -0.22670
O521        O  0.86342110  0.48808747  0.42568727    -0.75020
O522        O  0.85353680  0.06572591  0.45371374    -0.53930
C523        C  0.83794743  0.02733425  0.43206147     0.78710
O524        O  0.97842628  0.38058082  0.58202922    -0.59620
O525        O  0.55134766  0.36254451  0.54634930    -0.52650
C526        C  0.51444088  0.35166499  0.57222487     0.70720
O527        O  0.86629966  0.49575559  0.57866574    -0.74180
O528        O  0.85379319  0.06957464  0.54382248    -0.54740
C529        C  0.83984818  0.03358446  0.56922123     0.76730
O530        O  0.98057057  0.37847069  0.42238881    -0.59320
O531        O  0.55593063  0.36366170  0.45545992    -0.52440
C532        C  0.51867336  0.35141689  0.43072905     0.73320
Zr533      Zr  0.94662566  0.45812458  0.43889726     2.54710
O534        O  0.88226836  0.39238836  0.43309364    -0.79890
O535        O  0.95411022  0.46856912  0.36232325    -0.93310
Zr536      Zr  0.94670512  0.46059182  0.56349739     2.64680
O537        O  0.87720144  0.39970987  0.56912300    -0.98260
O538        O  0.95506612  0.46982820  0.63996339    -0.80320
O539        O  0.91265863  0.49375032  0.50056035    -0.83680
O540        O  0.97972111  0.42403280  0.50178815    -2.18390
O541        O  0.61115426  0.99807263  0.40765674    -0.67070
O542        O  0.64791570  0.45629088  0.46052696    -0.51630
C543        C  0.65079172  0.48318992  0.42649034     0.71700
O544        O  0.52485752  0.14086713  0.57454364    -0.59980
O545        O  0.94776086  0.15439902  0.54389541    -0.51950
C546        C  0.98617636  0.16731484  0.56725240     0.73500
O547        O  0.63188540  0.02230125  0.57975772    -0.71370
O548        O  0.64498352  0.44766775  0.54731655    -0.50050
C549        C  0.65849584  0.48414208  0.57177656     0.74890
O550        O  0.52411890  0.13918160  0.41993339    -0.66700
O551        O  0.94872439  0.15498625  0.45286406    -0.53900
C552        C  0.98677733  0.16709577  0.42846425     0.73270
Zr553      Zr  0.55301433  0.05718752  0.43594276     2.77540
O554        O  0.62986607  0.10912322  0.43440653    -0.97450
O555        O  0.54556681  0.06550393  0.35927091    -0.78270
Zr556      Zr  0.55279767  0.05875188  0.56110260     2.70070
O557        O  0.62157781  0.11953779  0.56956822    -0.79520
O558        O  0.53732310  0.05180821  0.63704249    -0.98600
Zr559      Zr  0.92997002  0.08114617  0.49839886     2.21500
Zr560      Zr  0.56979706  0.43668069  0.50149382     2.11130
O561        O  0.58765072  0.02475255  0.49921187    -2.47290
O562        O  0.51975556  0.09301265  0.49800417    -0.79310
O563        O  0.53526111  0.47039465  0.43712312    -0.71510
O564        O  0.96394155  0.04716945  0.56277983    -2.32460
O565        O  0.96393052  0.04486295  0.43517376    -2.28670
O566        O  0.53571101  0.47224182  0.56482501    -0.73270
H567        H  0.97084597  0.38897687  0.50215520     0.78730
H568        H  0.94951787  0.06280404  0.58742210     0.79820
H569        H  0.62359286  0.03192590  0.49935402     0.82040
H570        H  0.94930284  0.05941900  0.41002784     0.79650
H571        H  0.93054456  0.49574406  0.64766676     0.42680
H572        H  0.55521033  0.02133865  0.64574171     0.41650
H573        H  0.63499598  0.12487959  0.54048833     0.41330
H574        H  0.65593720  0.08989701  0.44950544     0.39270
H575        H  0.53961616  0.03107370  0.34910381     0.42400
H576        H  0.92627060  0.49100137  0.35443656     0.37180
H577        H  0.87261520  0.38456252  0.46281463     0.43300
H578        H  0.88615632  0.37254488  0.54954085     0.39710
H579        H  0.64084144  0.10890959  0.40434767     0.44630
H580        H  0.94369884  0.43576157  0.35071343     0.43360
H581        H  0.88010675  0.38496375  0.59787679     0.43490
H582        H  0.55739195  0.07957102  0.64948680     0.43850
C583        C  0.00278589  0.26228679  0.34085990     0.03400
C584        C  0.99077652  0.21782492  0.36278509    -0.12750
C585        C  0.49020919  0.21614437  0.40735221     0.00900
C586        C  0.50451364  0.25900039  0.43013370    -0.11270
C587        C  0.51710103  0.30358054  0.40852999     0.03390
C588        C  0.01423185  0.30515554  0.36416497    -0.10700
H589        H  0.98256480  0.18412359  0.34510768     0.08990
H590        H  0.50521690  0.25780652  0.46432659     0.06520
H591        H  0.01854517  0.34064172  0.34791491     0.06360
C592        C  0.74657271  0.01672393  0.34112591     0.03400
C593        C  0.78998125  0.02808263  0.36523473    -0.12750
C594        C  0.78871841  0.02643340  0.40987834     0.00900
C595        C  0.74413370  0.00867994  0.43035639    -0.11270
C596        C  0.70001959  0.99813843  0.40665830     0.03390
C597        C  0.70111139  0.00657602  0.36266539    -0.10700
H598        H  0.82583165  0.03551514  0.34934831     0.08990
H599        H  0.74393872  0.00264284  0.46419786     0.06520
H600        H  0.66656487  0.00281053  0.34465177     0.06360
C601        C  0.74768483  0.01527486  0.65795252     0.03400
C602        C  0.78777196  0.03689387  0.63406725    -0.12750
C603        C  0.78984534  0.03180779  0.58980445     0.00900
C604        C  0.74936220  0.00789641  0.56890959    -0.11270
C605        C  0.70857389  0.98680671  0.59194001     0.03390
C606        C  0.71002626  0.98767613  0.63640153    -0.10700
H607        H  0.81896213  0.05572344  0.64992823     0.08990
H608        H  0.74960222  0.00576380  0.53475857     0.06520
H609        H  0.67928354  0.97002519  0.65389899     0.06360
C610        C  0.99283605  0.25625161  0.65884618     0.03400
C611        C  0.98784237  0.21270256  0.63473480    -0.12750
C612        C  0.98749017  0.21463614  0.59015117     0.00900
C613        C  0.00048491  0.25945238  0.56932656    -0.11270
C614        C  0.01004488  0.30265849  0.59292583     0.03390
C615        C  0.00308646  0.30125040  0.63702112    -0.10700
H616        H  0.98543713  0.17682729  0.65020652     0.08990
H617        H  0.50305640  0.26072818  0.53518419     0.06520
H618        H  0.00529153  0.33600358  0.65428558     0.06360
C619        C  0.74529231  0.02200961  0.15693179     0.03400
C620        C  0.75945057  0.48081375  0.13298010    -0.12750
C621        C  0.75451524  0.48102126  0.08876704     0.00900
C622        C  0.73441139  0.02312473  0.06840283    -0.11270
C623        C  0.72049119  0.06511342  0.09198698     0.03390
C624        C  0.72588300  0.06394567  0.13635704    -0.10700
H625        H  0.77255120  0.44758921  0.14903099     0.08990
H626        H  0.73024771  0.02345626  0.03445112     0.06520
H627        H  0.71646318  0.09646690  0.15477118     0.06360
O628        O  0.71709954  0.40665983  0.92521798    -0.75020
O629        O  0.79486452  0.42078066  0.95515117    -0.53930
C630        C  0.75627580  0.43389851  0.93254017     0.78710
O631        O  0.60608405  0.28369502  0.08027800    -0.59620
O632        O  0.58969004  0.21097071  0.04492464    -0.52650
C633        C  0.57774241  0.24634081  0.07065716     0.70720
O634        O  0.71714521  0.40504280  0.07512083    -0.74180
O635        O  0.79470251  0.42010897  0.04448121    -0.54740
C636        C  0.75608989  0.43267431  0.06729020     0.76730
O637        O  0.60555531  0.28755712  0.92144094    -0.59320
O638        O  0.59025312  0.21265908  0.95483846    -0.52440
C639        C  0.57778348  0.24937866  0.93029685     0.73320
Zr640      Zr  0.68617789  0.32360964  0.93836499     2.54710
O641        O  0.61905087  0.38438095  0.93438762    -0.79890
O642        O  0.69500996  0.32029771  0.86149952    -0.93310
Zr643      Zr  0.68616636  0.32195787  0.06270940     2.64620
O644        O  0.62095253  0.38465600  0.06910013    -0.98260
O645        O  0.69681660  0.31501515  0.13921454    -0.80320
O646        O  0.72084715  0.35805376  0.00050653    -0.83680
O647        O  0.65102455  0.28772423  0.00051838    -2.18390
O648        O  0.75325329  0.14571662  0.91754469    -0.67070
O649        O  0.68125507  0.12562082  0.95484586    -0.51630
C650        C  0.71708132  0.11580329  0.92799586     0.71700
O651        O  0.86998460  0.25697671  0.07735751    -0.59980
O652        O  0.88540448  0.33255687  0.04533177    -0.51950
C653        C  0.89787919  0.29525212  0.06930762     0.73500
O654        O  0.75420816  0.14328615  0.08058163    -0.71370
O655        O  0.68059036  0.12521146  0.04535900    -0.50050
C656        C  0.71703117  0.11430606  0.07119987     0.74890
O657        O  0.86894377  0.25936489  0.92069086    -0.66700
O658        O  0.88567483  0.33291346  0.95458238    -0.53900
C659        C  0.89740583  0.29673584  0.92947982     0.73270
Zr660      Zr  0.78784361  0.22503886  0.93727304     2.77540
O661        O  0.85456501  0.16359313  0.93360059    -0.97450
O662        O  0.78097521  0.23551399  0.86074375    -0.78270
Zr663      Zr  0.78788158  0.22375388  0.06212578     2.70070
O664        O  0.85221540  0.16059443  0.06978450    -0.79520
O665        O  0.77766229  0.23444641  0.13814772    -0.98600
Zr666      Zr  0.81009524  0.34624472  0.00000348     2.21500
Zr667      Zr  0.66544325  0.19963791  0.99992853     2.11130
O668        O  0.75480245  0.18811659  0.99969969    -2.47290
O669        O  0.82331558  0.25866945  0.99965915    -0.79310
O670        O  0.69955793  0.23667990  0.93605929    -0.71510
O671        O  0.77462136  0.31043966  0.06392289    -2.32460
O672        O  0.77454256  0.31179156  0.93635529    -2.28670
O673        O  0.69960248  0.23500514  0.06381297    -0.73270
H674        H  0.61525518  0.29446333  0.00070170     0.78730
H675        H  0.78960972  0.32522279  0.08888293     0.79820
H676        H  0.76287311  0.15318895  0.99957497     0.82040
H677        H  0.78975363  0.32726930  0.91153798     0.79650
H678        H  0.71549909  0.34581638  0.14735672     0.42680
H679        H  0.74448037  0.21842454  0.14488965     0.41650
H680        H  0.86101026  0.15162452  0.04028962     0.41330
H681        H  0.84347768  0.13610602  0.95281405     0.39270
H682        H  0.74703025  0.22167959  0.85366816     0.42400
H683        H  0.73043425  0.33086161  0.85547120     0.37180
H684        H  0.61180039  0.39262637  0.96433424     0.43300
H685        H  0.59380553  0.37416172  0.04929050     0.39710
H686        H  0.85223320  0.14944866  0.90473036     0.44630
H687        H  0.67469909  0.34849115  0.85112812     0.43360
H688        H  0.60616825  0.37962665  0.09775687     0.43490
H689        H  0.80276145  0.21166087  0.15048436     0.43850
C690        C  0.98638761  0.26944153  0.15746832     0.03400
C691        C  0.52596860  0.24717120  0.13518571    -0.12750
C692        C  0.52772506  0.24845832  0.09081429     0.00900
C693        C  0.98758035  0.26994138  0.06846962    -0.11270
C694        C  0.94743512  0.29236672  0.09012128     0.03390
C695        C  0.94832527  0.29366055  0.13465840    -0.10700
H696        H  0.55748037  0.23168952  0.15252933     0.08990
H697        H  0.98775413  0.26946350  0.03432054     0.06520
H698        H  0.91814995  0.31197231  0.15132341     0.06360
C699        C  0.74605077  0.02439634  0.84233158     0.03400
C700        C  0.75906375  0.48249059  0.86630530    -0.12750
C701        C  0.75492990  0.48245597  0.91067471     0.00900
C702        C  0.73535659  0.02457510  0.93104365    -0.11270
C703        C  0.72128534  0.06681161  0.90738844     0.03390
C704        C  0.72694144  0.06617472  0.86302356    -0.10700
H705        H  0.76982519  0.44869852  0.85022755     0.08990
H706        H  0.73149714  0.02463435  0.96503971     0.06520
H707        H  0.71814191  0.09914825  0.84457384     0.06360
C708        C  0.98733255  0.26839903  0.84261948     0.03400
C709        C  0.52689040  0.24771480  0.86578453    -0.12750
C710        C  0.52816096  0.25149702  0.90999313     0.00900
C711        C  0.98810917  0.27480974  0.93114457    -0.11270
C712        C  0.94687585  0.29369017  0.90842585     0.03390
C713        C  0.94718912  0.29073574  0.86393075    -0.10700
H714        H  0.55861326  0.23170392  0.84910803     0.08990
H715        H  0.98885723  0.27795988  0.96517025     0.06520
H716        H  0.91486390  0.30346707  0.84599776     0.06360
C717        C  0.95553858  0.23218552  0.77577870    -0.05510
C718        C  0.98811463  0.26614377  0.79590430     0.00420
C719        C  0.52124157  0.29670896  0.77159032    -0.08150
C720        C  0.52371212  0.28919071  0.72771413    -0.05530
C721        C  0.99031935  0.25608899  0.70650778     0.00400
C722        C  0.95445434  0.22758056  0.73129223    -0.08060
C723        C  0.91446298  0.19253710  0.71266293     0.62320
H724        H  0.93046702  0.20931245  0.79543027     0.13010
H725        H  0.55181676  0.31010532  0.70955154     0.13020
C726        C  0.55210509  0.33862074  0.79173659     0.62550
F727        F  0.87443318  0.18483381  0.74060526    -0.22620
F728        F  0.93535298  0.14663166  0.70484660    -0.19950
F729        F  0.89446155  0.21205459  0.67578571    -0.19620
F730        F  0.58733677  0.31932724  0.81927828    -0.19680
F731        F  0.52016091  0.36945820  0.81388611    -0.20000
F732        F  0.57772138  0.36746251  0.76171288    -0.22670
C733        C  0.79198576  0.01545208  0.72784424    -0.05510
C734        C  0.74626043  0.02041049  0.70531093     0.00420
C735        C  0.70113354  0.02995328  0.72868610    -0.08150
C736        C  0.70276897  0.02839573  0.77320162    -0.05530
C737        C  0.74827376  0.02327204  0.79530171     0.00400
C738        C  0.79414921  0.01913977  0.77234136    -0.08060
C739        C  0.84527343  0.02115165  0.79435345     0.62320
H740        H  0.82644532  0.00846057  0.71038640     0.13010
H741        H  0.66808275  0.03270132  0.79122141     0.13020
C742        C  0.65085747  0.04344204  0.70870653     0.62550
F743        F  0.88489454  0.02438497  0.76550738    -0.22620
F744        F  0.85173435  0.47887129  0.81881087    -0.19950
F745        F  0.84817713  0.06273566  0.81999931    -0.19620
F746        F  0.62058688  0.50102432  0.70540054    -0.19680
F747        F  0.65722685  0.06558084  0.66928506    -0.20000
F748        F  0.62578826  0.07726478  0.73379876    -0.22670
C749        C  0.72030793  0.48325664  0.22511411    -0.05510
C750        C  0.74897620  0.01996577  0.20376530     0.00420
C751        C  0.78096419  0.05231403  0.22720847    -0.08150
C752        C  0.77801908  0.05101830  0.27177076    -0.05530
C753        C  0.74864495  0.01467074  0.29362602     0.00400
C754        C  0.72198531  0.47782072  0.26939765    -0.08060
C755        C  0.69606723  0.43147167  0.28808105     0.62320
H756        H  0.69723136  0.45760205  0.20662869     0.13010
H757        H  0.79902837  0.07879853  0.28963593     0.13020
C758        C  0.81877027  0.08784434  0.20609773     0.62550
F759        F  0.70010868  0.39180633  0.26049356    -0.22620
F760        F  0.64516820  0.44036467  0.29426011    -0.19950
F761        F  0.71792528  0.41684077  0.32584055    -0.19620
F762        F  0.79580143  0.13264842  0.19780580    -0.19680
F763        F  0.83718492  0.06855093  0.16863238    -0.20000
F764        F  0.85995185  0.09622845  0.23232984    -0.22670
C765        C  0.95582315  0.24567641  0.27442593    -0.05510
C766        C  0.99991927  0.26466815  0.29374230     0.00420
C767        C  0.53937555  0.28523214  0.26789216    -0.08150
C768        C  0.53162859  0.28863412  0.22392481    -0.05530
C769        C  0.98766692  0.26941781  0.20459923     0.00400
C770        C  0.94935531  0.24651986  0.23015562    -0.08060
C771        C  0.90253846  0.22161724  0.21129229     0.62320
H772        H  0.92610229  0.23013149  0.29455621     0.13010
H773        H  0.56077906  0.30560645  0.20395736     0.13020
C774        C  0.59035200  0.30237124  0.28541870     0.62550
F775        F  0.87524582  0.19481570  0.24157792    -0.22620
F776        F  0.91629863  0.18901105  0.17966308    -0.19950
F777        F  0.87092941  0.25715023  0.19481877    -0.19620
F778        F  0.60521303  0.27211079  0.31864408    -0.19680
F779        F  0.58738516  0.35099191  0.29912674    -0.20000
F780        F  0.62776011  0.30059149  0.25459691    -0.22670
O781        O  0.86342106  0.98808741  0.42568734    -0.75020
O782        O  0.85353682  0.56572594  0.45371373    -0.53930
C783        C  0.83794746  0.52733430  0.43206142     0.78710
O784        O  0.97842630  0.88058082  0.58202922    -0.59620
O785        O  0.55134764  0.86254450  0.54634931    -0.52650
C786        C  0.51444086  0.85166498  0.57222487     0.70720
O787        O  0.86629965  0.99575558  0.57866573    -0.74180
O788        O  0.85379322  0.56957465  0.54382249    -0.54740
C789        C  0.83984819  0.53358448  0.56922123     0.76730
O790        O  0.98057055  0.87847067  0.42238881    -0.59320
O791        O  0.55593063  0.86366169  0.45545993    -0.52440
C792        C  0.51867336  0.85141688  0.43072906     0.73320
Zr793      Zr  0.94662564  0.95812456  0.43889727     2.54710
O794        O  0.88226836  0.89238832  0.43309363    -0.79890
O795        O  0.95411015  0.96856912  0.36232326    -0.93310
Zr796      Zr  0.94670512  0.96059182  0.56349739     2.64680
O797        O  0.87720145  0.89970987  0.56912303    -0.98260
O798        O  0.95506613  0.96982823  0.63996339    -0.80320
O799        O  0.91265862  0.99375031  0.50056036    -0.83680
O800        O  0.97972110  0.92403280  0.50178816    -2.18390
O801        O  0.61115427  0.49807265  0.40765674    -0.67070
O802        O  0.64791569  0.95629086  0.46052696    -0.51630
C803        C  0.65079171  0.98318990  0.42649033     0.71700
O804        O  0.52485749  0.64086713  0.57454365    -0.59980
O805        O  0.94776090  0.65439903  0.54389542    -0.51950
C806        C  0.98617640  0.66731484  0.56725241     0.73500
O807        O  0.63188539  0.52230128  0.57975771    -0.71370
O808        O  0.64498351  0.94766772  0.54731655    -0.50050
C809        C  0.65849584  0.98414204  0.57177656     0.74890
O810        O  0.52411889  0.63918160  0.41993341    -0.66700
O811        O  0.94872443  0.65498626  0.45286407    -0.53900
C812        C  0.98677737  0.66709576  0.42846426     0.73270
Zr813      Zr  0.55301431  0.55718752  0.43594275     2.77540
O814        O  0.62986604  0.60912323  0.43440649    -0.97450
O815        O  0.54556675  0.56550391  0.35927091    -0.78270
Zr816      Zr  0.55279765  0.55875189  0.56110259     2.70070
O817        O  0.62157777  0.61953782  0.56956821    -0.79520
O818        O  0.53732310  0.55180820  0.63704248    -0.98600
Zr819      Zr  0.92997005  0.58114617  0.49839887     2.21500
Zr820      Zr  0.56979705  0.93668068  0.50149383     2.11130
O821        O  0.58765071  0.52475256  0.49921186    -2.47290
O822        O  0.51975554  0.59301265  0.49800416    -0.79310
O823        O  0.53526114  0.97039465  0.43712313    -0.71510
O824        O  0.96394156  0.54716945  0.56277984    -2.32460
O825        O  0.96393057  0.54486296  0.43517377    -2.28670
O826        O  0.53571101  0.97224182  0.56482502    -0.73270
H827        H  0.97084597  0.88897686  0.50215521     0.78730
H828        H  0.94951788  0.56280403  0.58742211     0.79820
H829        H  0.62359285  0.53192592  0.49935401     0.82040
H830        H  0.94930290  0.55941903  0.41002785     0.79650
H831        H  0.93054453  0.99574405  0.64766676     0.42680
H832        H  0.55521030  0.52133863  0.64574169     0.41650
H833        H  0.63499594  0.62487962  0.54048831     0.41330
H834        H  0.65593717  0.58989704  0.44950543     0.39270
H835        H  0.53961611  0.53107368  0.34910382     0.42400
H836        H  0.92627050  0.99100132  0.35443658     0.37180
H837        H  0.87261523  0.88456245  0.46281462     0.43300
H838        H  0.88615632  0.87254488  0.54954088     0.39710
H839        H  0.64084143  0.60890955  0.40434763     0.44630
H840        H  0.94369882  0.93576155  0.35071344     0.43360
H841        H  0.88010678  0.88496375  0.59787682     0.43490
H842        H  0.55739196  0.57957099  0.64948680     0.43850
C843        C  0.00278593  0.76228677  0.34085991     0.03400
C844        C  0.99077657  0.71782490  0.36278510    -0.12750
C845        C  0.49020919  0.71614436  0.40735223     0.00900
C846        C  0.50451362  0.75900039  0.43013372    -0.11270
C847        C  0.51710102  0.80358053  0.40853001     0.03390
C848        C  0.01423187  0.80515552  0.36416497    -0.10700
H849        H  0.98256487  0.68412356  0.34510770     0.08990
H850        H  0.50521687  0.75780652  0.46432661     0.06520
H851        H  0.01854518  0.84064171  0.34791491     0.06360
C852        C  0.74657267  0.51672407  0.34112589     0.03400
C853        C  0.78998122  0.52808276  0.36523470    -0.12750
C854        C  0.78871842  0.52643346  0.40987832     0.00900
C855        C  0.74413373  0.50867996  0.43035637    -0.11270
C856        C  0.70001960  0.49813847  0.40665829     0.03390
C857        C  0.70111137  0.50657610  0.36266539    -0.10700
H858        H  0.82583160  0.53551533  0.34934826     0.08990
H859        H  0.74393877  0.50264283  0.46419784     0.06520
H860        H  0.66656485  0.50281061  0.34465178     0.06360
C861        C  0.74768483  0.51527491  0.65795253     0.03400
C862        C  0.78777197  0.53689389  0.63406725    -0.12750
C863        C  0.78984535  0.53180781  0.58980445     0.00900
C864        C  0.74936221  0.50789644  0.56890959    -0.11270
C865        C  0.70857388  0.48680675  0.59194001     0.03390
C866        C  0.71002625  0.48767619  0.63640154    -0.10700
H867        H  0.81896215  0.55572345  0.64992824     0.08990
H868        H  0.74960223  0.50576383  0.53475857     0.06520
H869        H  0.67928351  0.47002527  0.65389899     0.06360
C870        C  0.99283613  0.75625163  0.65884619     0.03400
C871        C  0.98784245  0.71270257  0.63473481    -0.12750
C872        C  0.98749022  0.71463614  0.59015118     0.00900
C873        C  0.00048494  0.75945239  0.56932656    -0.11270
C874        C  0.01004492  0.80265850  0.59292583     0.03390
C875        C  0.00308653  0.80125042  0.63702112    -0.10700
H876        H  0.98543722  0.67682730  0.65020654     0.08990
H877        H  0.50305635  0.76072817  0.53518419     0.06520
H878        H  0.00529159  0.83600360  0.65428558     0.06360
C879        C  0.74529239  0.52200955  0.15693177     0.03400
C880        C  0.75945059  0.98081382  0.13298015    -0.12750
C881        C  0.75451531  0.98102130  0.08876708     0.00900
C882        C  0.73441134  0.52312472  0.06840282    -0.11270
C883        C  0.72049125  0.56511343  0.09198699     0.03390
C884        C  0.72588314  0.56394566  0.13635705    -0.10700
H885        H  0.77255122  0.94758930  0.14903106     0.08990
H886        H  0.73024760  0.52345626  0.03445111     0.06520
H887        H  0.71646345  0.59646691  0.15477120     0.06360
O888        O  0.71709962  0.90665988  0.92521800    -0.75020
O889        O  0.79486460  0.92078070  0.95515118    -0.53930
C890        C  0.75627588  0.93389854  0.93254019     0.78710
O891        O  0.60608412  0.78369508  0.08027800    -0.59620
O892        O  0.58969010  0.71097077  0.04492465    -0.52650
C893        C  0.57774248  0.74634087  0.07065717     0.70720
O894        O  0.71714531  0.90504282  0.07512089    -0.74180
O895        O  0.79470260  0.92010901  0.04448124    -0.54740
C896        C  0.75608998  0.93267434  0.06729025     0.76730
O897        O  0.60555537  0.78755719  0.92144096    -0.59320
O898        O  0.59025318  0.71265915  0.95483847    -0.52440
C899        C  0.57778355  0.74937873  0.93029686     0.73320
Zr900      Zr  0.68617796  0.82360970  0.93836502     2.54710
O901        O  0.61905094  0.88438101  0.93438772    -0.79890
O902        O  0.69500999  0.82029781  0.86149955    -0.93310
Zr903      Zr  0.68616645  0.82195790  0.06270943     2.64620
O904        O  0.62095264  0.88465605  0.06910019    -0.98260
O905        O  0.69681670  0.81501514  0.13921457    -0.80320
O906        O  0.72084723  0.85805380  0.00050656    -0.83680
O907        O  0.65102463  0.78772427  0.00051841    -2.18390
O908        O  0.75325338  0.64571661  0.91754475    -0.67070
O909        O  0.68125511  0.62562086  0.95484586    -0.51630
C910        C  0.71708138  0.61580330  0.92799590     0.71700
O911        O  0.86998466  0.75697674  0.07735753    -0.59980
O912        O  0.88540455  0.83255690  0.04533179    -0.51950
C913        C  0.89787926  0.79525215  0.06930764     0.73500
O914        O  0.75420824  0.64328616  0.08058163    -0.71370
O915        O  0.68059042  0.62521149  0.04535902    -0.50050
C916        C  0.71703123  0.61430608  0.07119988     0.74890
O917        O  0.86894382  0.75936496  0.92069084    -0.66700
O918        O  0.88567490  0.83291349  0.95458240    -0.53900
C919        C  0.89740589  0.79673589  0.92947982     0.73270
Zr920      Zr  0.78784366  0.72503891  0.93727303     2.77540
O921        O  0.85456512  0.66359325  0.93360044    -0.97450
O922        O  0.78097509  0.73551406  0.86074376    -0.78270
Zr923      Zr  0.78788165  0.72375389  0.06212578     2.70070
O924        O  0.85221550  0.66059446  0.06978446    -0.79520
O925        O  0.77766238  0.73444635  0.13814773    -0.98600
Zr926      Zr  0.81009531  0.84624476  0.00000350     2.21500
Zr927      Zr  0.66544332  0.69963795  0.99992854     2.11130
O928        O  0.75480251  0.68811662  0.99969969    -2.47290
O929        O  0.82331564  0.75866948  0.99965915    -0.79310
O930        O  0.69955798  0.73667996  0.93605931    -0.71510
O931        O  0.77462144  0.81043967  0.06392291    -2.32460
O932        O  0.77454262  0.81179161  0.93635531    -2.28670
O933        O  0.69960256  0.73500517  0.06381299    -0.73270
H934        H  0.61525526  0.79446338  0.00070173     0.78730
H935        H  0.78960981  0.82522280  0.08888295     0.79820
H936        H  0.76287318  0.65318898  0.99957497     0.82040
H937        H  0.78975369  0.82726935  0.91153799     0.79650
H938        H  0.71549912  0.84581640  0.14735677     0.42680
H939        H  0.74448038  0.71842463  0.14488962     0.41650
H940        H  0.86101036  0.65162457  0.04028958     0.41330
H941        H  0.84347788  0.63610614  0.95281394     0.39270
H942        H  0.74703018  0.72167954  0.85366819     0.42400
H943        H  0.73043428  0.83086174  0.85547122     0.37180
H944        H  0.61180054  0.89262648  0.96433435     0.43300
H945        H  0.59380564  0.87416180  0.04929057     0.39710
H946        H  0.85223323  0.64944877  0.90473022     0.44630
H947        H  0.67469910  0.84849124  0.85112817     0.43360
H948        H  0.60616836  0.87962668  0.09775693     0.43490
H949        H  0.80276141  0.71166066  0.15048435     0.43850
C950        C  0.98638767  0.76944153  0.15746834     0.03400
C951        C  0.52596869  0.74717122  0.13518572    -0.12750
C952        C  0.52772513  0.74845839  0.09081430     0.00900
C953        C  0.98758042  0.76994143  0.06846964    -0.11270
C954        C  0.94743518  0.79236675  0.09012130     0.03390
C955        C  0.94832531  0.79366054  0.13465843    -0.10700
H956        H  0.55748047  0.73168955  0.15252932     0.08990
H957        H  0.98775421  0.76946358  0.03432056     0.06520
H958        H  0.91814997  0.81197224  0.15132345     0.06360
C959        C  0.74605073  0.52439635  0.84233158     0.03400
C960        C  0.75906385  0.98249061  0.86630531    -0.12750
C961        C  0.75492998  0.98245600  0.91067472     0.00900
C962        C  0.73535659  0.52457509  0.93104366    -0.11270
C963        C  0.72128537  0.56681163  0.90738846     0.03390
C964        C  0.72694146  0.56617475  0.86302358    -0.10700
H965        H  0.76982534  0.94869855  0.85022757     0.08990
H966        H  0.73149716  0.52463433  0.96503972     0.06520
H967        H  0.71814196  0.59914830  0.84457387     0.06360
C968        C  0.98733264  0.76839908  0.84261949     0.03400
C969        C  0.52689046  0.74771489  0.86578454    -0.12750
C970        C  0.52816102  0.75149710  0.90999315     0.00900
C971        C  0.98810924  0.77480979  0.93114459    -0.11270
C972        C  0.94687591  0.79369021  0.90842586     0.03390
C973        C  0.94718921  0.79073578  0.86393076    -0.10700
H974        H  0.55861332  0.73170400  0.84910805     0.08990
H975        H  0.98885728  0.77795992  0.96517027     0.06520
H976        H  0.91486398  0.80346711  0.84599776     0.06360
C977        C  0.95553868  0.73218555  0.77577871    -0.05510
C978        C  0.98811472  0.76614381  0.79590431     0.00420
C979        C  0.52124161  0.79670901  0.77159032    -0.08150
C980        C  0.52371215  0.78919073  0.72771413    -0.05530
C981        C  0.99031944  0.75608901  0.70650779     0.00400
C982        C  0.95445443  0.72758058  0.73129225    -0.08060
C983        C  0.91446308  0.69253712  0.71266295     0.62320
H984        H  0.93046712  0.70931248  0.79543029     0.13010
H985        H  0.55181679  0.81010533  0.70955153     0.13020
C986        C  0.55210513  0.83862079  0.79173656     0.62550
F987        F  0.87443328  0.68483382  0.74060529    -0.22620
F988        F  0.93535307  0.64663168  0.70484662    -0.19950
F989        F  0.89446163  0.71205461  0.67578573    -0.19620
F990        F  0.58733682  0.81932730  0.81927826    -0.19680
F991        F  0.52016096  0.86945826  0.81388608    -0.20000
F992        F  0.57772142  0.86746255  0.76171284    -0.22670
C993        C  0.79198574  0.51545208  0.72784425    -0.05510
C994        C  0.74626043  0.52041054  0.70531093     0.00420
C995        C  0.70113354  0.52995338  0.72868609    -0.08150
C996        C  0.70276895  0.52839583  0.77320161    -0.05530
C997        C  0.74827372  0.52327207  0.79530172     0.00400
C998        C  0.79414917  0.51913975  0.77234138    -0.08060
C999        C  0.84527339  0.52115155  0.79435348     0.62320
H1000       H  0.82644529  0.50846054  0.71038642     0.13010
H1001       H  0.66808272  0.53270145  0.79122140     0.13020
C1002       C  0.65085748  0.54344218  0.70870651     0.62550
F1003       F  0.88489452  0.52438485  0.76550743    -0.22620
F1004       F  0.85173445  0.97887141  0.81881086    -0.19950
F1005       F  0.84817714  0.56273554  0.81999937    -0.19620
F1006       F  0.62058690  0.00102415  0.70540056    -0.19680
F1007       F  0.65722689  0.56558096  0.66928503    -0.20000
F1008       F  0.62578830  0.57726495  0.73379873    -0.22670
C1009       C  0.72030765  0.98325679  0.22511412    -0.05510
C1010       C  0.74897638  0.51996569  0.20376528     0.00420
C1011       C  0.78096410  0.55231419  0.22720845    -0.08150
C1012       C  0.77801882  0.55101859  0.27177074    -0.05530
C1013       C  0.74864487  0.51467090  0.29362601     0.00400
C1014       C  0.72198516  0.97782073  0.26939764    -0.08060
C1015       C  0.69606704  0.93147168  0.28808099     0.62320
H1016       H  0.69723095  0.95760232  0.20662870     0.13010
H1017       H  0.79902796  0.57879895  0.28963590     0.13020
C1018       C  0.81877010  0.58784469  0.20609784     0.62550
F1019       F  0.70010853  0.89180637  0.26049347    -0.22620
F1020       F  0.64516800  0.94036471  0.29425998    -0.19950
F1021       F  0.71792501  0.91684073  0.32584050    -0.19620
F1022       F  0.79580148  0.63264918  0.19780707    -0.19680
F1023       F  0.83718395  0.56855216  0.16863187    -0.20000
F1024       F  0.85995220  0.59622775  0.23232960    -0.22670
C1025       C  0.95582323  0.74567631  0.27442593    -0.05510
C1026       C  0.99991933  0.76466811  0.29374231     0.00420
C1027       C  0.53937557  0.78523217  0.26789218    -0.08150
C1028       C  0.53162861  0.78863417  0.22392484    -0.05530
C1029       C  0.98766698  0.76941779  0.20459924     0.00400
C1030       C  0.94935541  0.74651976  0.23015562    -0.08060
C1031       C  0.90253863  0.72161704  0.21129227     0.62320
H1032       H  0.92610239  0.73013134  0.29455620     0.13010
H1033       H  0.56077904  0.80560658  0.20395740     0.13020
C1034       C  0.59035198  0.80237135  0.28541873     0.62550
F1035       F  0.87524605  0.69481541  0.24157788    -0.22620
F1036       F  0.91629888  0.68901091  0.17966304    -0.19950
F1037       F  0.87092949  0.75714996  0.19481876    -0.19620
F1038       F  0.60521302  0.77211100  0.31864418    -0.19680
F1039       F  0.58738510  0.85099205  0.29912667    -0.20000
F1040       F  0.62776012  0.80059153  0.25459697    -0.22670
loop_ 
_geom_bond_atom_site_label_1 
_geom_bond_atom_site_label_2 
_geom_bond_distance 
_geom_bond_site_symmetry_2 
_ccdc_geom_bond_type 
O1          Zr13   2.390       .  S
O1          C263   1.277       .  A
O2          Zr39   2.495       .  S
O2            C3   1.301       .  A
C3          O261   1.277   1_545  A
C3           C74   1.478       .  S
O4          Zr16   2.389       .  S
O4          C526   1.277       .  A
O5          Zr40   2.472       .  S
O5            C6   1.296       .  A
C6          O524   1.277   1_455  A
C6          C614   1.466       .  S
O7          Zr16   2.388       .  S
O7          C269   1.277       .  A
O8          Zr39   2.478       .  S
O8            C9   1.297       .  A
C9          O267   1.277   1_545  A
C9           C83   1.469       .  S
O10         Zr13   2.394       .  S
O10         C532   1.279       .  A
O11         Zr40   2.469       .  S
O11          C12   1.296       .  A
C12         O530   1.279   1_455  A
C12          C67   1.466       .  S
Zr13         O14   2.434       .  S
Zr13         O15   2.435       .  S
Zr13         O19   2.355       .  S
Zr13         O20   2.355       .  S
Zr13        O563   2.357       .  S
Zr13        O305   2.365       .  S
O14          H57   0.990       .  S
O15          H56   0.990       .  S
O15          H60   0.990       .  S
Zr16         O17   2.438       .  S
Zr16         O18   2.436       .  S
Zr16         O20   2.357       .  S
Zr16         O19   2.357       .  S
Zr16        O304   2.359       .  S
Zr16        O566   2.365       .  S
O17          H58   0.990       .  S
O17          H61   0.990       .  S
O18          H51   0.990       .  S
O19        Zr299   2.381       .  S
O20        Zr560   2.396       .  S
O20          H47   0.965       .  S
O21         Zr33   2.403   1_565  S
O21         C283   1.274       .  A
O22         Zr40   2.476       .  S
O22          C23   1.290       .  A
C23         O281   1.274       .  A
C23         C336   1.487       .  S
O24         Zr36   2.378       .  S
O24         C546   1.275   1_455  A
O25         Zr39   2.480       .  S
O25          C26   1.298       .  A
C26         O544   1.275       .  A
C26          C92   1.465       .  S
O27         Zr36   2.396       .  S
O27         C289   1.279   1_545  A
O28         Zr40   2.473       .  S
O28          C29   1.296       .  A
C29         O287   1.279       .  A
C29         C345   1.470       .  S
O30         Zr33   2.393       .  S
O30         C552   1.279   1_455  A
O31         Zr39   2.480       .  S
O31          C32   1.298       .  A
C32         O550   1.279       .  A
C32         C585   1.472       .  S
Zr33         O34   2.439       .  S
Zr33         O35   2.435       .  S
Zr33         O41   2.364       .  S
Zr33         O42   2.361       .  S
Zr33        O565   2.369   1_455  S
Zr33        O303   2.367   1_545  S
O34          H54   0.989       .  S
O34          H59   0.990       .  S
O35          H55   0.990       .  S
Zr36         O37   2.434       .  S
Zr36         O38   2.433       .  S
Zr36         O42   2.362       .  S
Zr36         O41   2.352       .  S
Zr36        O306   2.358   1_545  S
Zr36        O564   2.361   1_455  S
O37          H53   0.990       .  S
O38          H52   0.989       .  S
O38          H62   0.990       .  S
Zr39         O44   2.403       .  S
Zr39         O45   2.403       .  S
Zr39        O279   2.381   1_545  S
Zr39        O562   2.386       .  S
Zr40         O43   2.405       .  S
Zr40         O46   2.399       .  S
Zr40        O540   2.396   1_455  S
Zr40        O301   2.401       .  S
O41        Zr300   2.401   1_545  S
O41          H49   0.965       .  S
O42        Zr559   2.386   1_455  S
O43        Zr533   2.357   1_455  S
O43        Zr293   2.367       .  S
O44        Zr276   2.359   1_545  S
O44        Zr556   2.361       .  S
O44          H48   0.966       .  S
O45        Zr273   2.365   1_545  S
O45        Zr553   2.369       .  S
O45          H50   0.966       .  S
O46        Zr536   2.365   1_455  S
O46        Zr296   2.358       .  S
C63         C246   1.489       .  S
C63          C64   1.405       .  A
C63          C68   1.398       .  A
C64         C585   1.406       .  A
C64          H69   1.084       .  S
C65         C552   1.472       .  S
C65          C66   1.406   1_655  A
C65         C584   1.406       .  A
C66          C67   1.406       .  A
C66          H70   1.079       .  S
C67         C588   1.401       .  A
C68         C587   1.401       .  A
C68          H71   1.082       .  S
C72         C233   1.500       .  S
C72          C73   1.407       .  A
C72          C77   1.398       .  A
C73          C74   1.408       .  A
C73          H78   1.084       .  S
C74          C75   1.414       .  A
C75          C76   1.411   1_545  A
C75          H79   1.078       .  S
C76         C283   1.487       .  S
C76          C77   1.404   1_565  A
C77          H80   1.079       .  S
C81         C214   1.501       .  S
C81          C82   1.410       .  A
C81          C86   1.408   1_545  A
C82          C83   1.404       .  A
C82          H87   1.083       .  S
C83          C84   1.404       .  A
C84          C85   1.404   1_545  A
C84          H88   1.079       .  S
C85         C289   1.470       .  S
C85          C86   1.403       .  A
C86          H89   1.080       .  S
C90         C201   1.504       .  S
C90          C91   1.403       .  A
C90          C95   1.407       .  A
C91          C92   1.406       .  A
C91          H96   1.077       .  S
C92          C93   1.402       .  A
C93          C94   1.401       .  A
C93         H617   1.079       .  S
C94         C526   1.466       .  S
C94          C95   1.402       .  A
C95          H98   1.084       .  S
H97         C613   1.079       .  S
C99         C230   1.481       .  S
C99         C104   1.401       .  A
C99         C360   1.399   1_545  A
C100        C101   1.400       .  A
C100        C359   1.399       .  A
C100        H105   1.085       .  S
C101        C116   1.469       .  S
C101        C362   1.409       .  A
C102        C103   1.408       .  A
C102        C361   1.409   1_545  A
C102        H106   1.076       .  S
C103        C136   1.474       .  S
C103        C104   1.407       .  A
C104        H107   1.084       .  S
O108       Zr120   2.391       .  S
O108        C110   1.278       .  A
O109       Zr146   2.481   1_556  S
O109        C110   1.298       .  A
C110        C181   1.471       .  S
O111       Zr123   2.394       .  S
O111        C113   1.278       .  A
O112       Zr147   2.473   1_554  S
O112        C113   1.296       .  A
C113        C172   1.466       .  S
O114       Zr123   2.395       .  S
O114        C116   1.278       .  A
O115       Zr146   2.475       .  S
O115        C116   1.297       .  A
O117       Zr120   2.385       .  S
O117        C119   1.277       .  A
O118       Zr147   2.474       .  S
O118        C119   1.296       .  A
C119        C190   1.462       .  S
Zr120       O121   2.434       .  S
Zr120       O122   2.436       .  S
Zr120       O126   2.353   1_556  S
Zr120       O127   2.357   1_556  S
Zr120       O150   2.367       .  S
Zr120       O152   2.361       .  S
O121        H164   0.990       .  S
O122        H163   0.989       .  S
O122        H167   0.990       .  S
Zr123       O124   2.439       .  S
Zr123       O125   2.436       .  S
Zr123       O127   2.357       .  S
Zr123       O126   2.356       .  S
Zr123       O151   2.362       .  S
Zr123       O153   2.367       .  S
O124        H165   0.990       .  S
O124        H168   0.990       .  S
O125        H158   0.990       .  S
O126       Zr146   2.383       .  S
O127       Zr147   2.401   1_554  S
O127        H154   0.965       .  S
O128       Zr140   2.387       .  S
O128        C130   1.276       .  A
O129       Zr147   2.492       .  S
O129        C130   1.299       .  A
C130        C183   1.477       .  S
O131       Zr143   2.380       .  S
O131        C133   1.276       .  A
O132       Zr146   2.484       .  S
O132        C133   1.298       .  A
C133        C174   1.469       .  S
O134       Zr143   2.386       .  S
O134        C136   1.277       .  A
O135       Zr147   2.488   1_554  S
O135        C136   1.299       .  A
O137       Zr140   2.370       .  S
O137        C139   1.274       .  A
O138       Zr146   2.485   1_556  S
O138        C139   1.298       .  A
C139        C192   1.467       .  S
Zr140       O141   2.439       .  S
Zr140       O142   2.435       .  S
Zr140       O148   2.354       .  S
Zr140       O149   2.359       .  S
Zr140       O152   2.361       .  S
Zr140       O150   2.358       .  S
O141        H161   0.990       .  S
O141        H166   0.990       .  S
O142        H162   0.990       .  S
Zr143       O144   2.434       .  S
Zr143       O145   2.431       .  S
Zr143       O149   2.358   1_554  S
Zr143       O148   2.357   1_554  S
Zr143       O153   2.356       .  S
Zr143       O151   2.360       .  S
O144        H160   0.990       .  S
O145        H159   0.990       .  S
O145        H169   0.989       .  S
Zr146       O149   2.382   1_554  S
Zr146       O151   2.406       .  S
Zr146       O152   2.402   1_554  S
Zr147       O148   2.385       .  S
Zr147       O150   2.404       .  S
Zr147       O153   2.404   1_556  S
O148        H156   0.965       .  S
O151        H155   0.966       .  S
O152        H157   0.966       .  S
C170        C249   1.486       .  S
C170        C175   1.404       .  A
C170        C691   1.403       .  A
C171        C172   1.400       .  A
C171        C690   1.403   1_455  A
C171        H176   1.085       .  S
C172        C693   1.405   1_455  A
C173        C174   1.406       .  A
C173        C692   1.405       .  A
C173        H177   1.077       .  S
C174        C175   1.405       .  A
C175        H178   1.081       .  S
C179        C217   1.484       .  S
C179        C184   1.403       .  A
C179        C440   1.399   1_545  A
C180        C181   1.403       .  A
C180        C439   1.399       .  A
C180        H185   1.084       .  S
C181        C442   1.410       .  A
C182        C183   1.409       .  A
C182        C441   1.410   1_545  A
C182        H186   1.076       .  S
C183        C184   1.407       .  A
C184        H187   1.085       .  S
C188        C198   1.475       .  S
C188        C193   1.400       .  A
C188        C709   1.398       .  A
C189        C190   1.399       .  A
C189        C708   1.398   1_455  A
C189        H194   1.085       .  S
C190        C711   1.408   1_455  A
C191        C192   1.406       .  A
C191        C710   1.408       .  A
C191        H195   1.077       .  S
C192        C193   1.406       .  A
C193        H196   1.085       .  S
C197        C198   1.398       .  A
C197        C202   1.409       .  A
C197        H204   1.084       .  S
C198        C719   1.409       .  A
C199        C200   1.401       .  A
C199        C718   1.409   1_455  A
C199        C206   1.520       .  S
C200        C721   1.413   1_455  A
C200        H205   1.082       .  S
C201        C202   1.432       .  A
C201        C720   1.413       .  A
C202        C203   1.522       .  S
C203        F207   1.385       .  S
C203        F208   1.383       .  S
C203        F209   1.382       .  S
C206        F210   1.380       .  S
C206        F211   1.384       .  S
C206        F212   1.385       .  S
C213        C214   1.411       .  A
C213        C218   1.408       .  A
C213        H220   1.082       .  S
C214        C215   1.427       .  A
C215        C216   1.405       .  A
C215        C222   1.520       .  S
C216        C217   1.399       .  A
C216        H221   1.085       .  S
C217        C218   1.416       .  A
C218        C219   1.520       .  S
C219        F223   1.385       .  S
C219        F225   1.384       .  S
C219        F484   1.381   1_545  S
C222        F227   1.382       .  S
C222        F228   1.385       .  S
C222        F486   1.383       .  S
F224        C479   1.381       .  S
F226        C482   1.383       .  S
C229        C234   1.404       .  A
C229        C490   1.398       .  A
C229        H236   1.085       .  S
C230        C231   1.414       .  A
C230        C489   1.398   1_545  A
C231        C232   1.407       .  A
C231        C238   1.516       .  S
C232        C233   1.409       .  A
C232        H237   1.083       .  S
C233        C494   1.430   1_545  A
C234        C493   1.430       .  A
C234        C235   1.522       .  S
C235        F239   1.385       .  S
C235        F240   1.383       .  S
C235        F241   1.382       .  S
C238        F242   1.381       .  S
C238        F243   1.384       .  S
C238        F244   1.384       .  S
C245        C246   1.404       .  A
C245        C250   1.407       .  A
C245        H252   1.083       .  S
C246        C767   1.421       .  A
C247        C248   1.404       .  A
C247        C766   1.421   1_455  A
C247        C254   1.521       .  S
C248        C769   1.404   1_455  A
C248        H253   1.084       .  S
C249        C250   1.419       .  A
C249        C768   1.404       .  A
C250        C251   1.519       .  S
C251        F255   1.383       .  S
C251        F256   1.384       .  S
C251        F257   1.379       .  S
C254        F258   1.383       .  S
C254        F259   1.381       .  S
C254        F260   1.385       .  S
O261       Zr273   2.390       .  S
O262       Zr299   2.495       .  S
O262        C263   1.301       .  A
C263        C334   1.478       .  S
O264       Zr276   2.389       .  S
O264        C786   1.277       .  A
O265       Zr300   2.472       .  S
O265        C266   1.296       .  A
C266        O784   1.277   1_455  A
C266        C874   1.466       .  S
O267       Zr276   2.388       .  S
O268       Zr299   2.478       .  S
O268        C269   1.297       .  A
C269        C343   1.469       .  S
O270       Zr273   2.394       .  S
O270        C792   1.279       .  A
O271       Zr300   2.469       .  S
O271        C272   1.296       .  A
C272        O790   1.279   1_455  A
C272        C327   1.466       .  S
Zr273       O274   2.434       .  S
Zr273       O275   2.435       .  S
Zr273       O279   2.355       .  S
Zr273       O280   2.355       .  S
Zr273       O823   2.357       .  S
O274        H317   0.990       .  S
O275        H316   0.990       .  S
O275        H320   0.990       .  S
Zr276       O277   2.438       .  S
Zr276       O278   2.436       .  S
Zr276       O280   2.357       .  S
Zr276       O279   2.357       .  S
Zr276       O826   2.365       .  S
O277        H318   0.990       .  S
O277        H321   0.990       .  S
O278        H311   0.990       .  S
O280       Zr820   2.396       .  S
O280        H307   0.965       .  S
O281       Zr293   2.403       .  S
O282       Zr300   2.476       .  S
O282        C283   1.290       .  A
O284       Zr296   2.378       .  S
O284        C806   1.275   1_455  A
O285       Zr299   2.480       .  S
O285        C286   1.298       .  A
C286        O804   1.275       .  A
C286        C352   1.465       .  S
O287       Zr296   2.396       .  S
O288       Zr300   2.473       .  S
O288        C289   1.296       .  A
O290       Zr293   2.393       .  S
O290        C812   1.279   1_455  A
O291       Zr299   2.480       .  S
O291        C292   1.298       .  A
C292        O810   1.279       .  A
C292        C845   1.472       .  S
Zr293       O294   2.439       .  S
Zr293       O295   2.435       .  S
Zr293       O301   2.364       .  S
Zr293       O302   2.361       .  S
Zr293       O825   2.369   1_455  S
O294        H314   0.989       .  S
O294        H319   0.990       .  S
O295        H315   0.990       .  S
Zr296       O297   2.434       .  S
Zr296       O298   2.433       .  S
Zr296       O302   2.362       .  S
Zr296       O301   2.352       .  S
Zr296       O824   2.361   1_455  S
O297        H313   0.990       .  S
O298        H312   0.989       .  S
O298        H322   0.990       .  S
Zr299       O822   2.386       .  S
Zr299       O304   2.403       .  S
Zr299       O305   2.403       .  S
Zr300       O800   2.396   1_455  S
Zr300       O303   2.405       .  S
Zr300       O306   2.399       .  S
O301        H309   0.965       .  S
O302       Zr819   2.386   1_455  S
O303       Zr793   2.357   1_455  S
O304       Zr816   2.361       .  S
O304        H308   0.966       .  S
O305       Zr813   2.369       .  S
O305        H310   0.966       .  S
O306       Zr796   2.365   1_455  S
C323        C506   1.489       .  S
C323        C324   1.405       .  A
C323        C328   1.398       .  A
C324        C845   1.406       .  A
C324        H329   1.084       .  S
C325        C812   1.472       .  S
C325        C844   1.406       .  A
C325        C326   1.406   1_655  A
C326        C327   1.406       .  A
C326        H330   1.079       .  S
C327        C848   1.401       .  A
C328        C847   1.401       .  A
C328        H331   1.082       .  S
C332        C493   1.500       .  S
C332        C333   1.407       .  A
C332        C337   1.398       .  A
C333        C334   1.408       .  A
C333        H338   1.084       .  S
C334        C335   1.414       .  A
C335        C336   1.411       .  A
C335        H339   1.078       .  S
C336        C337   1.404       .  A
C337        H340   1.079       .  S
C341        C474   1.501       .  S
C341        C342   1.410       .  A
C341        C346   1.408       .  A
C342        C343   1.404       .  A
C342        H347   1.083       .  S
C343        C344   1.404       .  A
C344        C345   1.404       .  A
C344        H348   1.079       .  S
C345        C346   1.403       .  A
C346        H349   1.080       .  S
C350        C461   1.504       .  S
C350        C351   1.403       .  A
C350        C355   1.407       .  A
C351        C352   1.406       .  A
C351        H356   1.077       .  S
C352        C353   1.402       .  A
C353        C354   1.401       .  A
C353        H877   1.079       .  S
C354        C786   1.466       .  S
C354        C355   1.402       .  A
C355        H358   1.084       .  S
H357        C873   1.079       .  S
C359        C490   1.481       .  S
C359        C364   1.401       .  A
C360        C361   1.400       .  A
C360        H365   1.085       .  S
C361        C376   1.469       .  S
C362        C363   1.408       .  A
C362        H366   1.076       .  S
C363        C396   1.474       .  S
C363        C364   1.407       .  A
C364        H367   1.084       .  S
O368       Zr380   2.391       .  S
O368        C370   1.278       .  A
O369       Zr406   2.481   1_556  S
O369        C370   1.298       .  A
C370        C441   1.471       .  S
O371       Zr383   2.394       .  S
O371        C373   1.278       .  A
O372       Zr407   2.473   1_554  S
O372        C373   1.296       .  A
C373        C432   1.466       .  S
O374       Zr383   2.395       .  S
O374        C376   1.278       .  A
O375       Zr406   2.475       .  S
O375        C376   1.297       .  A
O377       Zr380   2.385       .  S
O377        C379   1.277       .  A
O378       Zr407   2.474       .  S
O378        C379   1.296       .  A
C379        C450   1.462       .  S
Zr380       O381   2.434       .  S
Zr380       O382   2.436       .  S
Zr380       O386   2.353   1_556  S
Zr380       O387   2.357   1_556  S
Zr380       O410   2.367       .  S
Zr380       O412   2.361       .  S
O381        H424   0.990       .  S
O382        H423   0.989       .  S
O382        H427   0.990       .  S
Zr383       O384   2.439       .  S
Zr383       O385   2.436       .  S
Zr383       O387   2.357       .  S
Zr383       O386   2.356       .  S
Zr383       O411   2.362       .  S
Zr383       O413   2.367       .  S
O384        H425   0.990       .  S
O384        H428   0.990       .  S
O385        H418   0.990       .  S
O386       Zr406   2.383       .  S
O387       Zr407   2.401   1_554  S
O387        H414   0.965       .  S
O388       Zr400   2.387       .  S
O388        C390   1.276       .  A
O389       Zr407   2.492       .  S
O389        C390   1.299       .  A
C390        C443   1.477       .  S
O391       Zr403   2.380       .  S
O391        C393   1.276       .  A
O392       Zr406   2.484       .  S
O392        C393   1.298       .  A
C393        C434   1.469       .  S
O394       Zr403   2.386       .  S
O394        C396   1.277       .  A
O395       Zr407   2.488   1_554  S
O395        C396   1.299       .  A
O397       Zr400   2.370       .  S
O397        C399   1.274       .  A
O398       Zr406   2.485   1_556  S
O398        C399   1.298       .  A
C399        C452   1.467       .  S
Zr400       O401   2.439       .  S
Zr400       O402   2.435       .  S
Zr400       O408   2.354       .  S
Zr400       O409   2.359       .  S
Zr400       O412   2.361       .  S
Zr400       O410   2.358       .  S
O401        H421   0.990       .  S
O401        H426   0.990       .  S
O402        H422   0.990       .  S
Zr403       O404   2.434       .  S
Zr403       O405   2.431       .  S
Zr403       O409   2.358   1_554  S
Zr403       O408   2.357   1_554  S
Zr403       O413   2.356       .  S
Zr403       O411   2.360       .  S
O404        H420   0.990       .  S
O405        H419   0.990       .  S
O405        H429   0.989       .  S
Zr406       O409   2.382   1_554  S
Zr406       O411   2.406       .  S
Zr406       O412   2.402   1_554  S
Zr407       O408   2.385       .  S
Zr407       O410   2.404       .  S
Zr407       O413   2.404   1_556  S
O408        H416   0.965       .  S
O411        H415   0.966       .  S
O412        H417   0.966       .  S
C430        C509   1.486       .  S
C430        C951   1.403       .  A
C430        C435   1.404       .  A
C431        C950   1.403   1_455  A
C431        C432   1.400       .  A
C431        H436   1.085       .  S
C432        C953   1.405   1_455  A
C433        C952   1.405       .  A
C433        C434   1.406       .  A
C433        H437   1.077       .  S
C434        C435   1.405       .  A
C435        H438   1.081       .  S
C439        C477   1.484       .  S
C439        C444   1.403       .  A
C440        C441   1.403       .  A
C440        H445   1.084       .  S
C442        C443   1.409       .  A
C442        H446   1.076       .  S
C443        C444   1.407       .  A
C444        H447   1.085       .  S
C448        C458   1.475       .  S
C448        C969   1.398       .  A
C448        C453   1.400       .  A
C449        C968   1.398   1_455  A
C449        C450   1.399       .  A
C449        H454   1.085       .  S
C450        C971   1.408   1_455  A
C451        C970   1.408       .  A
C451        C452   1.406       .  A
C451        H455   1.077       .  S
C452        C453   1.406       .  A
C453        H456   1.085       .  S
C457        C458   1.398       .  A
C457        C462   1.409       .  A
C457        H464   1.084       .  S
C458        C979   1.409       .  A
C459        C978   1.409   1_455  A
C459        C460   1.401       .  A
C459        C466   1.520       .  S
C460        C981   1.413   1_455  A
C460        H465   1.082       .  S
C461        C980   1.413       .  A
C461        C462   1.432       .  A
C462        C463   1.522       .  S
C463        F467   1.385       .  S
C463        F468   1.383       .  S
C463        F469   1.382       .  S
C466        F470   1.380       .  S
C466        F471   1.384       .  S
C466        F472   1.385       .  S
C473        C474   1.411       .  A
C473        C478   1.408       .  A
C473        H480   1.082       .  S
C474        C475   1.427       .  A
C475        C476   1.405       .  A
C475        C482   1.520       .  S
C476        C477   1.399       .  A
C476        H481   1.085       .  S
C477        C478   1.416       .  A
C478        C479   1.520       .  S
C479        F483   1.385       .  S
C479        F485   1.384       .  S
C482        F487   1.382       .  S
C482        F488   1.385       .  S
C489        C494   1.404       .  A
C489        H496   1.085       .  S
C490        C491   1.414       .  A
C491        C492   1.407       .  A
C491        C498   1.516       .  S
C492        C493   1.409       .  A
C492        H497   1.083       .  S
C494        C495   1.522       .  S
C495        F499   1.385       .  S
C495        F500   1.383       .  S
C495        F501   1.382       .  S
C498        F502   1.381       .  S
C498        F503   1.384       .  S
C498        F504   1.384       .  S
C505        C506   1.404       .  A
C505        C510   1.407       .  A
C505        H512   1.083       .  S
C506       C1027   1.421       .  A
C507       C1026   1.421   1_455  A
C507        C508   1.404       .  A
C507        C514   1.521       .  S
C508       C1029   1.404   1_455  A
C508        H513   1.084       .  S
C509       C1028   1.404       .  A
C509        C510   1.419       .  A
C510        C511   1.519       .  S
C511        F515   1.383       .  S
C511        F516   1.384       .  S
C511        F517   1.379       .  S
C514        F518   1.383       .  S
C514        F519   1.381       .  S
C514        F520   1.385       .  S
O521       Zr533   2.390       .  S
O521        C783   1.277       .  A
O522       Zr559   2.495       .  S
O522        C523   1.301       .  A
C523        O781   1.277   1_545  A
C523        C594   1.478       .  S
O524       Zr536   2.389       .  S
O525       Zr560   2.472       .  S
O525        C526   1.296       .  A
O527       Zr536   2.388       .  S
O527        C789   1.277       .  A
O528       Zr559   2.478       .  S
O528        C529   1.297       .  A
C529        O787   1.277   1_545  A
C529        C603   1.469       .  S
O530       Zr533   2.394       .  S
O531       Zr560   2.469       .  S
O531        C532   1.296       .  A
C532        C587   1.466       .  S
Zr533       O534   2.434       .  S
Zr533       O535   2.435       .  S
Zr533       O539   2.355       .  S
Zr533       O540   2.355       .  S
Zr533       O825   2.365       .  S
O534        H577   0.990       .  S
O535        H576   0.990       .  S
O535        H580   0.990       .  S
Zr536       O537   2.438       .  S
Zr536       O538   2.436       .  S
Zr536       O540   2.357       .  S
Zr536       O539   2.357       .  S
Zr536       O824   2.359       .  S
O537        H578   0.990       .  S
O537        H581   0.990       .  S
O538        H571   0.990       .  S
O539       Zr819   2.381       .  S
O540        H567   0.965       .  S
O541       Zr553   2.403   1_565  S
O541        C803   1.274       .  A
O542       Zr560   2.476       .  S
O542        C543   1.290       .  A
C543        O801   1.274       .  A
C543        C856   1.487       .  S
O544       Zr556   2.378       .  S
O545       Zr559   2.480       .  S
O545        C546   1.298       .  A
C546        C612   1.465       .  S
O547       Zr556   2.396       .  S
O547        C809   1.279   1_545  A
O548       Zr560   2.473       .  S
O548        C549   1.296       .  A
C549        O807   1.279       .  A
C549        C865   1.470       .  S
O550       Zr553   2.393       .  S
O551       Zr559   2.480       .  S
O551        C552   1.298       .  A
Zr553       O554   2.439       .  S
Zr553       O555   2.435       .  S
Zr553       O561   2.364       .  S
Zr553       O562   2.361       .  S
Zr553       O823   2.367   1_545  S
O554        H574   0.989       .  S
O554        H579   0.990       .  S
O555        H575   0.990       .  S
Zr556       O557   2.434       .  S
Zr556       O558   2.433       .  S
Zr556       O562   2.362       .  S
Zr556       O561   2.352       .  S
Zr556       O826   2.358   1_545  S
O557        H573   0.990       .  S
O558        H572   0.989       .  S
O558        H582   0.990       .  S
Zr559       O799   2.381   1_545  S
Zr559       O564   2.403       .  S
Zr559       O565   2.403       .  S
Zr560       O821   2.401       .  S
Zr560       O563   2.405       .  S
Zr560       O566   2.399       .  S
O561       Zr820   2.401   1_545  S
O561        H569   0.965       .  S
O563       Zr813   2.367       .  S
O564       Zr796   2.359   1_545  S
O564        H568   0.966       .  S
O565       Zr793   2.365   1_545  S
O565        H570   0.966       .  S
O566       Zr816   2.358       .  S
C583        C766   1.489   1_455  S
C583        C584   1.405   1_455  A
C583        C588   1.398       .  A
C584        H589   1.084       .  S
C585        C586   1.406       .  A
C586        C587   1.406       .  A
C586        H590   1.079       .  S
C588        H591   1.082       .  S
C592        C753   1.500       .  S
C592        C593   1.407       .  A
C592        C597   1.398       .  A
C593        C594   1.408       .  A
C593        H598   1.084       .  S
C594        C595   1.414       .  A
C595        C596   1.411   1_545  A
C595        H599   1.078       .  S
C596        C803   1.487       .  S
C596        C597   1.404   1_565  A
C597        H600   1.079       .  S
C601        C734   1.501       .  S
C601        C602   1.410       .  A
C601        C606   1.408   1_545  A
C602        C603   1.404       .  A
C602        H607   1.083       .  S
C603        C604   1.404       .  A
C604        C605   1.404   1_545  A
C604        H608   1.079       .  S
C605        C809   1.470       .  S
C605        C606   1.403       .  A
C606        H609   1.080       .  S
C610        C721   1.504       .  S
C610        C611   1.403       .  A
C610        C615   1.407   1_655  A
C611        C612   1.406       .  A
C611        H616   1.077       .  S
C612        C613   1.402   1_655  A
C613        C614   1.401       .  A
C614        C615   1.402       .  A
C615        H618   1.084       .  S
C619        C750   1.481       .  S
C619        C880   1.399   1_545  A
C619        C624   1.401       .  A
C620        C879   1.399       .  A
C620        C621   1.400       .  A
C620        H625   1.085       .  S
C621        C636   1.469       .  S
C621        C882   1.409       .  A
C622        C881   1.409   1_545  A
C622        C623   1.408       .  A
C622        H626   1.076       .  S
C623        C656   1.474       .  S
C623        C624   1.407       .  A
C624        H627   1.084       .  S
O628       Zr640   2.391       .  S
O628        C630   1.278       .  A
O629       Zr666   2.481   1_556  S
O629        C630   1.298       .  A
C630        C701   1.471       .  S
O631       Zr643   2.394       .  S
O631        C633   1.278       .  A
O632       Zr667   2.473   1_554  S
O632        C633   1.296       .  A
C633        C692   1.466       .  S
O634       Zr643   2.395       .  S
O634        C636   1.278       .  A
O635       Zr666   2.475       .  S
O635        C636   1.297       .  A
O637       Zr640   2.385       .  S
O637        C639   1.277       .  A
O638       Zr667   2.474       .  S
O638        C639   1.296       .  A
C639        C710   1.462       .  S
Zr640       O641   2.434       .  S
Zr640       O642   2.436       .  S
Zr640       O646   2.353   1_556  S
Zr640       O647   2.357   1_556  S
Zr640       O670   2.367       .  S
Zr640       O672   2.361       .  S
O641        H684   0.990       .  S
O642        H683   0.989       .  S
O642        H687   0.990       .  S
Zr643       O644   2.439       .  S
Zr643       O645   2.436       .  S
Zr643       O647   2.357       .  S
Zr643       O646   2.356       .  S
Zr643       O671   2.362       .  S
Zr643       O673   2.367       .  S
O644        H685   0.990       .  S
O644        H688   0.990       .  S
O645        H678   0.990       .  S
O646       Zr666   2.383       .  S
O647       Zr667   2.401   1_554  S
O647        H674   0.965       .  S
O648       Zr660   2.387       .  S
O648        C650   1.276       .  A
O649       Zr667   2.492       .  S
O649        C650   1.299       .  A
C650        C703   1.477       .  S
O651       Zr663   2.380       .  S
O651        C653   1.276       .  A
O652       Zr666   2.484       .  S
O652        C653   1.298       .  A
C653        C694   1.469       .  S
O654       Zr663   2.386       .  S
O654        C656   1.277       .  A
O655       Zr667   2.488   1_554  S
O655        C656   1.299       .  A
O657       Zr660   2.370       .  S
O657        C659   1.274       .  A
O658       Zr666   2.485   1_556  S
O658        C659   1.298       .  A
C659        C712   1.467       .  S
Zr660       O661   2.439       .  S
Zr660       O662   2.435       .  S
Zr660       O668   2.354       .  S
Zr660       O669   2.359       .  S
Zr660       O672   2.361       .  S
Zr660       O670   2.358       .  S
O661        H681   0.990       .  S
O661        H686   0.990       .  S
O662        H682   0.990       .  S
Zr663       O664   2.434       .  S
Zr663       O665   2.431       .  S
Zr663       O669   2.358   1_554  S
Zr663       O668   2.357   1_554  S
Zr663       O673   2.356       .  S
Zr663       O671   2.360       .  S
O664        H680   0.990       .  S
O665        H679   0.990       .  S
O665        H689   0.989       .  S
Zr666       O669   2.382   1_554  S
Zr666       O671   2.406       .  S
Zr666       O672   2.402   1_554  S
Zr667       O668   2.385       .  S
Zr667       O670   2.404       .  S
Zr667       O673   2.404   1_556  S
O668        H676   0.965       .  S
O671        H675   0.966       .  S
O672        H677   0.966       .  S
C690        C769   1.486       .  S
C690        C695   1.404       .  A
C691        C692   1.400       .  A
C691        H696   1.085       .  S
C693        C694   1.406       .  A
C693        H697   1.077       .  S
C694        C695   1.405       .  A
C695        H698   1.081       .  S
C699        C737   1.484       .  S
C699        C960   1.399   1_545  A
C699        C704   1.403       .  A
C700        C959   1.399       .  A
C700        C701   1.403       .  A
C700        H705   1.084       .  S
C701        C962   1.410       .  A
C702        C961   1.410   1_545  A
C702        C703   1.409       .  A
C702        H706   1.076       .  S
C703        C704   1.407       .  A
C704        H707   1.085       .  S
C708        C718   1.475       .  S
C708        C713   1.400       .  A
C709        C710   1.399       .  A
C709        H714   1.085       .  S
C711        C712   1.406       .  A
C711        H715   1.077       .  S
C712        C713   1.406       .  A
C713        H716   1.085       .  S
C717        C718   1.398       .  A
C717        C722   1.409       .  A
C717        H724   1.084       .  S
C719        C720   1.401       .  A
C719        C726   1.520       .  S
C720        H725   1.082       .  S
C721        C722   1.432       .  A
C722        C723   1.522       .  S
C723        F727   1.385       .  S
C723        F728   1.383       .  S
C723        F729   1.382       .  S
C726        F730   1.380       .  S
C726        F731   1.384       .  S
C726        F732   1.385       .  S
C733        C734   1.411       .  A
C733        C738   1.408       .  A
C733        H740   1.082       .  S
C734        C735   1.427       .  A
C735        C736   1.405       .  A
C735        C742   1.520       .  S
C736        C737   1.399       .  A
C736        H741   1.085       .  S
C737        C738   1.416       .  A
C738        C739   1.520       .  S
C739        F743   1.385       .  S
C739       F1004   1.381   1_545  S
C739        F745   1.384       .  S
C742       F1006   1.383       .  S
C742        F747   1.382       .  S
C742        F748   1.385       .  S
F744        C999   1.381       .  S
F746       C1002   1.383       .  S
C749       C1010   1.398       .  A
C749        C754   1.404       .  A
C749        H756   1.085       .  S
C750       C1009   1.398   1_545  A
C750        C751   1.414       .  A
C751        C752   1.407       .  A
C751        C758   1.516       .  S
C752        C753   1.409       .  A
C752        H757   1.083       .  S
C753       C1014   1.430   1_545  A
C754       C1013   1.430       .  A
C754        C755   1.522       .  S
C755        F759   1.385       .  S
C755        F760   1.383       .  S
C755        F761   1.382       .  S
C758        F762   1.381       .  S
C758        F763   1.384       .  S
C758        F764   1.384       .  S
C765        C766   1.404       .  A
C765        C770   1.407       .  A
C765        H772   1.083       .  S
C767        C768   1.404       .  A
C767        C774   1.521       .  S
C768        H773   1.084       .  S
C769        C770   1.419       .  A
C770        C771   1.519       .  S
C771        F775   1.383       .  S
C771        F776   1.384       .  S
C771        F777   1.379       .  S
C774        F778   1.383       .  S
C774        F779   1.381       .  S
C774        F780   1.385       .  S
O781       Zr793   2.390       .  S
O782       Zr819   2.495       .  S
O782        C783   1.301       .  A
C783        C854   1.478       .  S
O784       Zr796   2.389       .  S
O785       Zr820   2.472       .  S
O785        C786   1.296       .  A
O787       Zr796   2.388       .  S
O788       Zr819   2.478       .  S
O788        C789   1.297       .  A
C789        C863   1.469       .  S
O790       Zr793   2.394       .  S
O791       Zr820   2.469       .  S
O791        C792   1.296       .  A
C792        C847   1.466       .  S
Zr793       O794   2.434       .  S
Zr793       O795   2.435       .  S
Zr793       O799   2.355       .  S
Zr793       O800   2.355       .  S
O794        H837   0.990       .  S
O795        H836   0.990       .  S
O795        H840   0.990       .  S
Zr796       O797   2.438       .  S
Zr796       O798   2.436       .  S
Zr796       O800   2.357       .  S
Zr796       O799   2.357       .  S
O797        H838   0.990       .  S
O797        H841   0.990       .  S
O798        H831   0.990       .  S
O800        H827   0.965       .  S
O801       Zr813   2.403       .  S
O802       Zr820   2.476       .  S
O802        C803   1.290       .  A
O804       Zr816   2.378       .  S
O805       Zr819   2.480       .  S
O805        C806   1.298       .  A
C806        C872   1.465       .  S
O807       Zr816   2.396       .  S
O808       Zr820   2.473       .  S
O808        C809   1.296       .  A
O810       Zr813   2.393       .  S
O811       Zr819   2.480       .  S
O811        C812   1.298       .  A
Zr813       O814   2.439       .  S
Zr813       O815   2.435       .  S
Zr813       O821   2.364       .  S
Zr813       O822   2.361       .  S
O814        H834   0.989       .  S
O814        H839   0.990       .  S
O815        H835   0.990       .  S
Zr816       O817   2.434       .  S
Zr816       O818   2.433       .  S
Zr816       O822   2.362       .  S
Zr816       O821   2.352       .  S
O817        H833   0.990       .  S
O818        H832   0.989       .  S
O818        H842   0.990       .  S
Zr819       O824   2.403       .  S
Zr819       O825   2.403       .  S
Zr820       O823   2.405       .  S
Zr820       O826   2.399       .  S
O821        H829   0.965       .  S
O824        H828   0.966       .  S
O825        H830   0.966       .  S
C843       C1026   1.489   1_455  S
C843        C844   1.405   1_455  A
C843        C848   1.398       .  A
C844        H849   1.084       .  S
C845        C846   1.406       .  A
C846        C847   1.406       .  A
C846        H850   1.079       .  S
C848        H851   1.082       .  S
C852       C1013   1.500       .  S
C852        C853   1.407       .  A
C852        C857   1.398       .  A
C853        C854   1.408       .  A
C853        H858   1.084       .  S
C854        C855   1.414       .  A
C855        C856   1.411       .  A
C855        H859   1.078       .  S
C856        C857   1.404       .  A
C857        H860   1.079       .  S
C861        C994   1.501       .  S
C861        C862   1.410       .  A
C861        C866   1.408       .  A
C862        C863   1.404       .  A
C862        H867   1.083       .  S
C863        C864   1.404       .  A
C864        C865   1.404       .  A
C864        H868   1.079       .  S
C865        C866   1.403       .  A
C866        H869   1.080       .  S
C870        C981   1.504       .  S
C870        C871   1.403       .  A
C870        C875   1.407   1_655  A
C871        C872   1.406       .  A
C871        H876   1.077       .  S
C872        C873   1.402   1_655  A
C873        C874   1.401       .  A
C874        C875   1.402       .  A
C875        H878   1.084       .  S
C879       C1010   1.481       .  S
C879        C884   1.401       .  A
C880        C881   1.400       .  A
C880        H885   1.085       .  S
C881        C896   1.469       .  S
C882        C883   1.408       .  A
C882        H886   1.076       .  S
C883        C916   1.474       .  S
C883        C884   1.407       .  A
C884        H887   1.084       .  S
O888       Zr900   2.391       .  S
O888        C890   1.278       .  A
O889       Zr926   2.481   1_556  S
O889        C890   1.298       .  A
C890        C961   1.471       .  S
O891       Zr903   2.394       .  S
O891        C893   1.278       .  A
O892       Zr927   2.473   1_554  S
O892        C893   1.296       .  A
C893        C952   1.466       .  S
O894       Zr903   2.395       .  S
O894        C896   1.278       .  A
O895       Zr926   2.475       .  S
O895        C896   1.297       .  A
O897       Zr900   2.385       .  S
O897        C899   1.277       .  A
O898       Zr927   2.474       .  S
O898        C899   1.296       .  A
C899        C970   1.462       .  S
Zr900       O901   2.434       .  S
Zr900       O902   2.436       .  S
Zr900       O906   2.353   1_556  S
Zr900       O907   2.357   1_556  S
Zr900       O930   2.367       .  S
Zr900       O932   2.361       .  S
O901        H944   0.990       .  S
O902        H943   0.989       .  S
O902        H947   0.990       .  S
Zr903       O904   2.439       .  S
Zr903       O905   2.436       .  S
Zr903       O907   2.357       .  S
Zr903       O906   2.356       .  S
Zr903       O931   2.362       .  S
Zr903       O933   2.367       .  S
O904        H945   0.990       .  S
O904        H948   0.990       .  S
O905        H938   0.990       .  S
O906       Zr926   2.383       .  S
O907       Zr927   2.401   1_554  S
O907        H934   0.965       .  S
O908       Zr920   2.387       .  S
O908        C910   1.276       .  A
O909       Zr927   2.492       .  S
O909        C910   1.299       .  A
C910        C963   1.477       .  S
O911       Zr923   2.380       .  S
O911        C913   1.276       .  A
O912       Zr926   2.484       .  S
O912        C913   1.298       .  A
C913        C954   1.469       .  S
O914       Zr923   2.386       .  S
O914        C916   1.277       .  A
O915       Zr927   2.488   1_554  S
O915        C916   1.299       .  A
O917       Zr920   2.370       .  S
O917        C919   1.274       .  A
O918       Zr926   2.485   1_556  S
O918        C919   1.298       .  A
C919        C972   1.467       .  S
Zr920       O921   2.439       .  S
Zr920       O922   2.435       .  S
Zr920       O928   2.354       .  S
Zr920       O929   2.359       .  S
Zr920       O932   2.361       .  S
Zr920       O930   2.358       .  S
O921        H941   0.990       .  S
O921        H946   0.990       .  S
O922        H942   0.990       .  S
Zr923       O924   2.434       .  S
Zr923       O925   2.431       .  S
Zr923       O929   2.358   1_554  S
Zr923       O928   2.357   1_554  S
Zr923       O933   2.356       .  S
Zr923       O931   2.360       .  S
O924        H940   0.990       .  S
O925        H939   0.990       .  S
O925        H949   0.989       .  S
Zr926       O929   2.382   1_554  S
Zr926       O931   2.406       .  S
Zr926       O932   2.402   1_554  S
Zr927       O928   2.385       .  S
Zr927       O930   2.404       .  S
Zr927       O933   2.404   1_556  S
O928        H936   0.965       .  S
O931        H935   0.966       .  S
O932        H937   0.966       .  S
C950       C1029   1.486       .  S
C950        C955   1.404       .  A
C951        C952   1.400       .  A
C951        H956   1.085       .  S
C953        C954   1.406       .  A
C953        H957   1.077       .  S
C954        C955   1.405       .  A
C955        H958   1.081       .  S
C959        C997   1.484       .  S
C959        C964   1.403       .  A
C960        C961   1.403       .  A
C960        H965   1.084       .  S
C962        C963   1.409       .  A
C962        H966   1.076       .  S
C963        C964   1.407       .  A
C964        H967   1.085       .  S
C968        C978   1.475       .  S
C968        C973   1.400       .  A
C969        C970   1.399       .  A
C969        H974   1.085       .  S
C971        C972   1.406       .  A
C971        H975   1.077       .  S
C972        C973   1.406       .  A
C973        H976   1.085       .  S
C977        C978   1.398       .  A
C977        C982   1.409       .  A
C977        H984   1.084       .  S
C979        C980   1.401       .  A
C979        C986   1.520       .  S
C980        H985   1.082       .  S
C981        C982   1.432       .  A
C982        C983   1.522       .  S
C983        F987   1.385       .  S
C983        F988   1.383       .  S
C983        F989   1.382       .  S
C986        F990   1.380       .  S
C986        F991   1.384       .  S
C986        F992   1.385       .  S
C993        C994   1.411       .  A
C993        C998   1.408       .  A
C993       H1000   1.082       .  S
C994        C995   1.427       .  A
C995        C996   1.405       .  A
C995       C1002   1.520       .  S
C996        C997   1.399       .  A
C996       H1001   1.085       .  S
C997        C998   1.416       .  A
C998        C999   1.520       .  S
C999       F1003   1.385       .  S
C999       F1005   1.384       .  S
C1002      F1007   1.382       .  S
C1002      F1008   1.385       .  S
C1009      C1014   1.404       .  A
C1009      H1016   1.085       .  S
C1010      C1011   1.414       .  A
C1011      C1012   1.407       .  A
C1011      C1018   1.516       .  S
C1012      C1013   1.409       .  A
C1012      H1017   1.083       .  S
C1014      C1015   1.522       .  S
C1015      F1019   1.385       .  S
C1015      F1020   1.383       .  S
C1015      F1021   1.382       .  S
C1018      F1022   1.381       .  S
C1018      F1023   1.384       .  S
C1018      F1024   1.384       .  S
C1025      C1026   1.404       .  A
C1025      C1030   1.407       .  A
C1025      H1032   1.083       .  S
C1027      C1028   1.404       .  A
C1027      C1034   1.521       .  S
C1028      H1033   1.084       .  S
C1029      C1030   1.419       .  A
C1030      C1031   1.519       .  S
C1031      F1035   1.383       .  S
C1031      F1036   1.384       .  S
C1031      F1037   1.379       .  S
C1034      F1038   1.383       .  S
C1034      F1039   1.381       .  S
C1034      F1040   1.385       .  S
