geometry optimzed in LAMMPS
_audit_creation_date              2020-11-30 
_audit_creation_method            'lammps2cif' 
_symmetry_space_group_name_H-M    'P1' 
_symmetry_Int_Tables_number       1 
_symmetry_cell_setting            triclinic 
loop_ 
_symmetry_equiv_pos_as_xyz 
  x,y,z 
_cell_length_a                    33.05411938 
_cell_length_b                    34.191710233027166 
_cell_length_c                    45.71430684213715 
_cell_angle_alpha                 89.11415458095946 
_cell_angle_beta                  88.5146466886102 
_cell_angle_gamma                 81.1333764540673 
loop_ 
_atom_site_label 
_atom_site_type_symbol 
_atom_site_fract_x 
_atom_site_fract_y 
_atom_site_fract_z 
_atom_site_charge 
O1          O  0.19693944  0.34175475  0.60979538    -0.77100
C2          C  0.32624103  0.32816647  0.62479268     0.83900
O3          O  0.26226984  0.23081231  0.55053822    -0.78200
O4          O  0.33703465  0.19862466  0.64337818    -0.79700
O5          O  0.21336298  0.25056658  0.69041481    -0.79500
O6          O  0.16211366  0.30806665  0.64120736    -0.78100
Zn7        Zn  0.24874999  0.30560870  0.59907159     1.55700
O8          O  0.27957070  0.25519083  0.69219375    -0.79500
Cd9        Cd  0.20161905  0.25562086  0.64609931     1.59700
Cd10       Cd  0.26068667  0.21144403  0.59393030     1.59600
O11         O  0.17363545  0.20830161  0.63469025    -0.79500
O12         O  0.25248568  0.25678973  0.62166592    -1.90000
Cd13       Cd  0.29933208  0.25232803  0.64892083     1.59900
O14         O  0.21395153  0.17781623  0.59936158    -0.79500
O15         O  0.33286229  0.29795604  0.64164907    -0.78100
C16         C  0.25685642  0.26557484  0.53930129     0.84400
C17         C  0.16594492  0.33917784  0.62641766     0.84000
O18         O  0.29555584  0.33403365  0.60814454    -0.77100
C19         C  0.24535696  0.25252594  0.70493193     0.84900
O20         O  0.25053414  0.29632827  0.55520186    -0.77200
C21         C  0.18253285  0.18031402  0.61640254     0.85000
C22         C  0.33924831  0.17203324  0.62392029     0.85300
O23         O  0.31413757  0.17387453  0.60306681    -0.79600
C24         C  0.03533221  0.47535806  0.63653760     0.31400
C25         C  0.47196176  0.03752892  0.63451484     0.31400
C26         C  0.49505022  0.46652834  0.62417214    -0.04800
C27         C  0.01964924  0.49302482  0.66658781    -0.05600
C28         C  0.04412013  0.01178785  0.61904417    -0.05500
C29         C  0.46314042  0.49821240  0.62231775    -0.04800
C30         C  0.48818455  0.02554749  0.66546891    -0.05600
C31         C  0.01221124  0.04391958  0.61874056    -0.05500
C32         C  0.42737901  0.48208037  0.62068556    -0.30900
N33         N  0.43685235  0.44216297  0.62150656     0.15600
C34         C  0.47764541  0.43237703  0.62466635    -0.30900
H35         H  0.49315223  0.40271943  0.62909555     0.17600
C36         C  0.47932182  0.03746692  0.69398555    -0.29900
N37         N  0.00203649  0.01185805  0.71239801     0.14400
C38         C  0.02615173  0.48439169  0.69586714    -0.29800
C39         C  0.03061296  0.07757317  0.61672420    -0.30100
N40         N  0.07152641  0.06696767  0.61378145     0.14900
H41         H  0.01558154  0.10764696  0.62005417     0.17500
C42         C  0.08027493  0.02719954  0.61602862    -0.30100
H43         H  0.11082974  0.01106729  0.61873017     0.17500
H44         H  0.04643749  0.45945431  0.70472770     0.17500
H45         H  0.39645531  0.49807177  0.62138750     0.17600
H46         H  0.45707548  0.06231595  0.70100905     0.17500
O47         O  0.03017606  0.08724036  0.94169744    -0.77100
C48         C  0.40465786  0.09185417  0.91996853     0.83900
O49         O  0.99832079  0.47298996  0.99184378    -0.78200
O50         O  0.41236451  0.46549966  0.90632710    -0.79700
O51         O  0.02851121  0.01590148  0.85270548    -0.79500
O52         O  0.07270902  0.05528025  0.90839946    -0.78100
Zn53       Zn  0.98435480  0.05517295  0.94846336     1.55700
O54         O  0.46266559  0.00845226  0.85228631    -0.79500
Cd55       Cd  0.04244259  0.00938392  0.89688181     1.59700
Cd56       Cd  0.99787241  0.46094983  0.94744583     1.59600
O57         O  0.08117556  0.45577020  0.90109434    -0.79500
O58         O  0.99224716  0.00988387  0.92254080    -1.90000
Cd59       Cd  0.44452886  0.01152597  0.89624121     1.59900
O60         O  0.05068042  0.42340537  0.93605173    -0.79500
O61         O  0.40544380  0.06424873  0.90148188    -0.78100
C62         C  0.99111444  0.00570214  0.00540516     0.84400
C63         C  0.06293254  0.08398645  0.92599108     0.84000
O64         O  0.43173248  0.09111165  0.93940934    -0.77100
C65         C  0.99614642  0.01260440  0.83896649     0.84900
O66         O  0.98417539  0.03875134  0.99165523    -0.77200
C67         C  0.07964994  0.42545545  0.91743532     0.85000
C68         C  0.41890486  0.43642111  0.92425476     0.85300
O69         O  0.44954984  0.43096427  0.94093459    -0.79600
C70         C  0.27151678  0.22567161  0.91088016     0.31400
C71         C  0.20967767  0.28866171  0.90894879     0.31400
C72         C  0.28185119  0.26529796  0.92149578    -0.04800
C73         C  0.25285088  0.23613517  0.88022093    -0.05600
C74         C  0.23267111  0.22065297  0.92867865    -0.05500
C75         C  0.25089903  0.29725378  0.91950817    -0.04800
C76         C  0.22339408  0.26973906  0.87906372    -0.05600
C77         C  0.20094584  0.25305167  0.92802404    -0.05500
C78         C  0.26909668  0.33078157  0.92000732    -0.30900
N79         N  0.30965348  0.32049002  0.92513943     0.15600
C80         C  0.31768349  0.28018684  0.92599766    -0.30900
H81         H  0.34752421  0.26265201  0.92841088     0.17600
C82         C  0.21785540  0.27898444  0.84980231    -0.29900
N83         N  0.23781020  0.24905290  0.83286237     0.14400
C84         C  0.25788196  0.22203629  0.85196842    -0.29800
C85         C  0.16482056  0.23752347  0.93182770    -0.30100
N86         N  0.17349971  0.19775676  0.93498800     0.14900
H87         H  0.13429667  0.25338165  0.92859407     0.17500
C88         C  0.21444216  0.18716612  0.93225681    -0.30100
H89         H  0.22948180  0.15704027  0.92907096     0.17500
H90         H  0.27474341  0.19350788  0.84643732     0.17500
H91         H  0.25405877  0.36056103  0.91531531     0.17600
H92         H  0.20190433  0.30686558  0.84184448     0.17500
O93         O  0.45059550  0.42493158  0.10097521    -0.77100
C94         C  0.49094543  0.00529711  0.03776597     0.83900
O95         O  0.07992624  0.44786895  0.13943138    -0.78200
O96         O  0.03448495  0.08134955  0.09960229    -0.79700
O97         O  0.40542547  0.05489943  0.14425772    -0.79500
O98         O  0.41114036  0.45691620  0.13558656    -0.78100
Zn99       Zn  0.49852613  0.45538018  0.09465167     1.55700
O100        O  0.43240312  0.08940671  0.10902849    -0.79500
Cd101      Cd  0.44364240  0.00138918  0.14723267     1.59700
Cd102      Cd  0.04117286  0.00059599  0.14467386     1.59600
O103        O  0.45967398  0.99637177  0.19141433    -0.79500
O104        O  0.49207240  0.00159258  0.11999481    -1.90000
Cd105      Cd  0.48486320  0.05129767  0.09542477     1.59900
O106        O  0.02532973  0.00362649  0.18884690    -0.79500
O107        O  0.48257273  0.03805083  0.05127534    -0.78100
C108        C  0.07890559  0.41831054  0.12301939     0.84400
C109        C  0.41826758  0.42880911  0.11721645     0.84000
O110        O  0.49920312  0.47226923  0.05148768    -0.77100
C111        C  0.40502756  0.08629675  0.12882304     0.84900
O112        O  0.05060132  0.41772756  0.10459002    -0.77200
C113        C  0.49290943  0.00048574  0.20385666     0.85000
C114        C  0.06572139  0.07603925  0.11579910     0.85300
O115        O  0.07246318  0.04715903  0.13389991    -0.79600
C116        C  0.21030419  0.28334783  0.13976406     0.31400
C117        C  0.27477541  0.22167605  0.14127636     0.31400
C118        C  0.24890863  0.28949874  0.12193004    -0.04800
C119        C  0.22908088  0.27276771  0.17026190    -0.05600
C120        C  0.20180046  0.24354592  0.12873264    -0.05500
C121        C  0.28189190  0.25819270  0.12186258    -0.04800
C122        C  0.26093028  0.24074709  0.17074060    -0.05600
C123        C  0.23411383  0.21237085  0.12879535    -0.05500
C124        C  0.31597057  0.27524836  0.11320572    -0.30900
N125        N  0.30514079  0.31500265  0.11018084     0.15600
C126        C  0.26431261  0.32373538  0.11519151    -0.30900
H127        H  0.24780334  0.35345735  0.11759759     0.17600
C128        C  0.27474263  0.23591285  0.19892553    -0.29900
N129        N  0.25343617  0.26480973  0.21553992     0.14400
C130        C  0.22662408  0.28817608  0.19828947    -0.29800
C131        C  0.21835433  0.17970492  0.11900133    -0.30100
N132        N  0.17743534  0.18978795  0.11526897     0.14900
H133        H  0.23454185  0.14993360  0.11662497     0.17500
C134        C  0.16734099  0.22910361  0.12034432    -0.30100
H135        H  0.13651123  0.24534014  0.12022248     0.17500
H136        H  0.20731992  0.31471139  0.20582213     0.17500
H137        H  0.34728536  0.26073771  0.11154799     0.17600
H138        H  0.29860411  0.21322181  0.20679966     0.17500
C139        C  0.47902681  0.06119279  0.40337173     0.31400
C140        C  0.04074714  0.49753487  0.40436860     0.31400
C141        C  0.46834394  0.02341607  0.41857958    -0.04800
C142        C  0.49430133  0.04458059  0.37291506    -0.05600
C143        C  0.01850582  0.06760778  0.41774748    -0.05500
C144        C  0.49978983  0.49092540  0.41885890    -0.04800
C145        C  0.02590295  0.01170877  0.37346783    -0.05600
C146        C  0.04965899  0.03556480  0.41844293    -0.05500
C147        C  0.48119421  0.45751031  0.42049773    -0.30900
N148        N  0.44010866  0.46832790  0.42278156     0.15600
C149        C  0.43190827  0.50837849  0.42080134    -0.30900
H150        H  0.40163704  0.02529471  0.41880972     0.17600
C151        C  0.02448202  0.49256370  0.34708247    -0.29900
N152        N  0.49624805  0.01391597  0.32997402     0.14400
C153        C  0.47612978  0.04421152  0.34593210    -0.29800
C154        C  0.08547951  0.05044477  0.42294690    -0.30100
N155        N  0.07668825  0.09041391  0.42517594     0.14900
H156        H  0.11608235  0.03374041  0.42213575     0.17500
C157        C  0.03600790  0.10113993  0.42142781    -0.30100
H158        H  0.02090239  0.13137142  0.41879021     0.17500
H159        H  0.44949920  0.06390414  0.33851260     0.17500
H160        H  0.49643170  0.42730409  0.41777783     0.17600
H161        H  0.04210781  0.46453875  0.34074174     0.17500
O162        O  0.22020289  0.19767502  0.44117482    -0.77100
C163        C  0.34894451  0.19840387  0.41847234     0.83900
O164        O  0.25046214  0.30490111  0.49569744    -0.78200
O165        O  0.33277515  0.32970513  0.40538327    -0.79700
O166        O  0.22457796  0.27632829  0.35616861    -0.79500
O167        O  0.17828728  0.23404880  0.41026892    -0.78100
Zn168      Zn  0.26607891  0.22864747  0.44780547     1.55700
O169        O  0.29141666  0.27799799  0.35415048    -0.79500
Cd170      Cd  0.20943861  0.28022202  0.40026268     1.59700
Cd171      Cd  0.25139251  0.32402705  0.45202764     1.59600
O172        O  0.17115474  0.33294456  0.40582403    -0.79500
O173        O  0.25853460  0.27766777  0.42504531    -1.90000
Cd174      Cd  0.30658356  0.27976543  0.39793327     1.59900
O175        O  0.19777853  0.36246997  0.44240243    -0.79500
O176        O  0.34996634  0.23049976  0.40417073    -0.78100
C177        C  0.25775416  0.27024618  0.50710963     0.84400
C178        C  0.18777393  0.20346025  0.42631339     0.84000
O179        O  0.31867718  0.19393844  0.43540475    -0.77100
C180        C  0.25790503  0.27590179  0.34149920     0.84900
O181        O  0.26554957  0.23934541  0.49140457    -0.77200
C182        C  0.17076931  0.36198059  0.42296800     0.85000
C183        C  0.32754456  0.35555599  0.42547668     0.85300
O184        O  0.29965705  0.35618825  0.44540688    -0.79600
C185        C  0.16053440  0.17329645  0.42711687    -0.04000
C186        C  0.12826259  0.17544657  0.44802981    -0.01100
C187        C  0.10104467  0.14752740  0.44776045     0.03900
C188        C  0.10578545  0.11767782  0.42633388    -0.04000
C189        C  0.13798252  0.11605363  0.40522690    -0.01100
C190        C  0.16574620  0.14331905  0.40598184     0.03900
C191        C  0.12290032  0.20673824  0.46951596     0.38500
C192        C  0.14115422  0.08808612  0.38154036     0.38500
C193        C  0.19952161  0.14079432  0.38479388     0.37000
C194        C  0.06800664  0.14961558  0.46941724     0.37000
N195        N  0.22655623  0.13855952  0.36799222    -0.37900
N196        N  0.04149381  0.15158367  0.48663074    -0.37900
N197        N  0.14407819  0.06620614  0.36229408    -0.37300
N198        N  0.11880865  0.23185932  0.48651844    -0.37300
C199        C  0.07648016  0.46315618  0.40909712    -0.04000
C200        C  0.10661419  0.45072234  0.38703192    -0.01100
C201        C  0.13568857  0.41643068  0.39125658     0.03900
C202        C  0.13894564  0.39713598  0.41878803    -0.04000
C203        C  0.11328991  0.41269185  0.44218305    -0.01100
C204        C  0.08252230  0.44557455  0.43755729     0.03900
C205        C  0.11218082  0.47524628  0.36158378     0.38500
C206        C  0.11797866  0.39438072  0.47101569     0.38500
C207        C  0.05853640  0.46214830  0.46276494     0.37000
C208        C  0.16365677  0.40191959  0.36738868     0.37000
N209        N  0.53953334  0.47528337  0.48290976    -0.37900
N210        N  0.18576283  0.39015334  0.34836047    -0.37900
N211        N  0.12166277  0.37996330  0.49405742    -0.37300
N212        N  0.11771679  0.99395608  0.34095389    -0.36100
C213        C  0.44623841  0.09834734  0.40706838    -0.04000
C214        C  0.43824265  0.12755229  0.38473622    -0.01100
C215        C  0.40503668  0.15862828  0.38774928     0.03900
C216        C  0.38364129  0.16510982  0.41493134    -0.04000
C217        C  0.39662347  0.14031975  0.43897631    -0.01100
C218        C  0.42768065  0.10740125  0.43518345     0.03900
C219        C  0.46767180  0.13030264  0.36102808     0.38500
C220        C  0.37951649  0.14963475  0.46810552     0.38500
C221        C  0.44268065  0.08502278  0.46103322     0.37000
C222        C  0.39290355  0.18345050  0.36242545     0.37000
N223        N  0.45484754  0.06758431  0.48172193    -0.37900
N224        N  0.38315030  0.20303610  0.34216564    -0.37900
N225        N  0.36607697  0.15711054  0.49134110    -0.37300
N226        N  0.49128644  0.13353728  0.34234673    -0.37300
C227        C  0.41058079  0.44127589  0.42403313    -0.04000
C228        C  0.38029216  0.44287527  0.40261417    -0.01100
C229        C  0.35289564  0.41500315  0.40323435     0.03900
C230        C  0.35515906  0.38578869  0.42555336    -0.04000
C231        C  0.38511017  0.38439059  0.44712554    -0.01100
C232        C  0.41283409  0.41191393  0.44627851     0.03900
C233        C  0.37809815  0.47243893  0.37941612     0.38500
C234        C  0.38854659  0.35351197  0.46943928     0.38500
C235        C  0.44388339  0.41008492  0.46827880     0.37000
C236        C  0.32241025  0.41624575  0.38082474     0.37000
N237        N  0.46901641  0.40852075  0.48560439    -0.37900
N238        N  0.29814475  0.41712729  0.36292576    -0.37900
N239        N  0.39146149  0.32864621  0.48706378    -0.37300
N240        N  0.37612390  0.99627807  0.36099252    -0.37300
C241        C  0.25749007  0.27253652  0.30883703    -0.04000
C242        C  0.28375636  0.29201298  0.29058154    -0.01100
C243        C  0.28312359  0.28857876  0.25981395     0.03900
C244        C  0.25528826  0.26721691  0.24690084    -0.04000
C245        C  0.22938842  0.24755113  0.26478269    -0.01100
C246        C  0.23072608  0.24963623  0.29555464     0.03900
C247        C  0.31053115  0.31680287  0.30316606     0.38500
C248        C  0.20177188  0.22453001  0.25124017     0.38500
C249        C  0.20527303  0.22705703  0.31329484     0.37000
C250        C  0.31169258  0.30639396  0.24135294     0.37000
N251        N  0.18485350  0.20903221  0.32730940    -0.37900
N252        N  0.33517435  0.32030884  0.22697336    -0.37900
N253        N  0.17976989  0.20607292  0.24046969    -0.37300
N254        N  0.33178564  0.33667431  0.31321597    -0.37300
C255        C  0.49473503  0.01029264  0.29863828    -0.04000
C256        C  0.47229612  0.98340654  0.28602181    -0.01100
C257        C  0.47184453  0.97964190  0.25518293     0.03900
C258        C  0.49394901  0.00306106  0.23665209    -0.04000
C259        C  0.01751206  0.02919562  0.24979367    -0.01100
C260        C  0.01794818  0.03248185  0.28050984     0.03900
C261        C  0.45076163  0.95884105  0.30500723     0.38500
C262        C  0.04156748  0.05303433  0.23200035     0.38500
C263        C  0.04350252  0.05786817  0.29379751     0.37000
C264        C  0.45057474  0.94997600  0.24282028     0.37000
N265        N  0.06422423  0.07782293  0.30436619    -0.37900
N266        N  0.43386447  0.92595865  0.23313053    -0.37900
N267        N  0.06132298  0.07174597  0.21802428    -0.37300
N268        N  0.43387551  0.93890081  0.32015789    -0.37300
C269        C  0.09408416  0.10561723  0.11476667    -0.04000
C270        C  0.09089743  0.13440336  0.13674882    -0.01100
C271        C  0.11888000  0.16149873  0.13714742     0.03900
C272        C  0.14873855  0.16190210  0.11445553    -0.04000
C273        C  0.15154533  0.13341533  0.09214231    -0.01100
C274        C  0.12471710  0.10487422  0.09256831     0.03900
C275        C  0.05841345  0.13649831  0.15890904     0.38500
C276        C  0.18196804  0.13364055  0.06878459     0.38500
C277        C  0.12926544  0.07415119  0.07069609     0.37000
C278        C  0.11838607  0.18733530  0.16199464     0.37000
N279        N  0.13312043  0.04938695  0.05341393    -0.37900
N280        N  0.11795263  0.20755681  0.18208095    -0.37900
N281        N  0.20627834  0.13380735  0.05011813    -0.37300
N282        N  0.03228706  0.13872502  0.17642981    -0.37300
C283        C  0.11065266  0.38287501  0.12673409    -0.04000
C284        C  0.11599288  0.36445232  0.15450878    -0.01100
C285        C  0.14469796  0.32972541  0.15814576     0.03900
C286        C  0.17316549  0.31653184  0.13529983    -0.04000
C287        C  0.16415719  0.33238775  0.10665453    -0.01100
C288        C  0.13371086  0.36573404  0.10260057     0.03900
C289        C  0.09063069  0.38028571  0.17931543     0.38500
C290        C  0.18421813  0.31324814  0.08083412     0.38500
C291        C  0.12694312  0.38305313  0.07360563     0.37000
C292        C  0.13922781  0.30469185  0.18329224     0.37000
N293        N  0.12163081  0.39682312  0.05047473    -0.37900
N294        N  0.13355968  0.28540249  0.20356891    -0.37900
N295        N  0.19992013  0.29797307  0.06017832    -0.37300
N296        N  0.07068082  0.39316251  0.19911443    -0.37300
C297        C  0.37238053  0.12063300  0.13506576    -0.04000
C298        C  0.38253854  0.15913645  0.13796622    -0.01100
C299        C  0.35161421  0.19125417  0.14482412     0.03900
C300        C  0.30998287  0.18630123  0.14415676    -0.04000
C301        C  0.30199228  0.14737493  0.14978581    -0.01100
C302        C  0.33192771  0.11470005  0.14268327     0.03900
C303        C  0.42485111  0.16558631  0.13560711     0.38500
C304        C  0.26658566  0.14097251  0.16762706     0.38500
C305        C  0.32044410  0.07541904  0.14281041     0.37000
C306        C  0.36288811  0.22567416  0.15878009     0.37000
N307        N  0.31108667  0.04416297  0.14275907    -0.37900
N308        N  0.37198524  0.25288820  0.17024233    -0.37900
N309        N  0.23859283  0.13585917  0.18211905    -0.37300
N310        N  0.45855958  0.17087338  0.13356346    -0.37300
C311        C  0.33314230  0.34346553  0.11160459    -0.04000
C312        C  0.33307837  0.36710823  0.13663048    -0.01100
C313        C  0.36048873  0.39472926  0.13851502     0.03900
C314        C  0.38840236  0.39971067  0.11497921    -0.04000
C315        C  0.38744495  0.37633111  0.08948036    -0.01100
C316        C  0.36059378  0.34788579  0.08823818     0.03900
C317        C  0.30468301  0.36277780  0.16078425     0.38500
C318        C  0.41250785  0.38233702  0.06375944     0.38500
C319        C  0.36038017  0.32350853  0.06259346     0.37000
C320        C  0.35952766  0.41750574  0.16514435     0.37000
N321        N  0.36028704  0.30391612  0.04218127    -0.37900
N322        N  0.35823463  0.43568898  0.18638822    -0.37900
N323        N  0.43217967  0.38712218  0.04307240    -0.37300
N324        N  0.28142629  0.35979474  0.17973481    -0.37300
C325        C  0.14446645  0.17079455  0.93260538    -0.04000
C326        C  0.12316089  0.15975758  0.95763197    -0.01100
C327        C  0.09680628  0.13115571  0.95569391     0.03900
C328        C  0.09047347  0.11447545  0.92824111    -0.04000
C329        C  0.11101480  0.12691932  0.90294695    -0.01100
C330        C  0.13857455  0.15423560  0.90534623     0.03900
C331        C  0.12931991  0.17731013  0.98550085     0.38500
C332        C  0.10319378  0.11265065  0.87421274     0.38500
C333        C  0.16146946  0.16512667  0.87980685     0.37000
C334        C  0.07790113  0.11772294  0.98225157     0.37000
N335        N  0.18001934  0.17343577  0.85944663    -0.37900
N336        N  0.06294896  0.10686033  0.00342785    -0.37900
N337        N  0.09703682  0.10145519  0.85122962    -0.37300
N338        N  0.13401860  0.19135241  0.00779180    -0.37300
C339        C  0.37194750  0.12655130  0.91823614    -0.04000
C340        C  0.34681739  0.13829532  0.94288922    -0.01100
C341        C  0.31591417  0.17158638  0.94108982     0.03900
C342        C  0.30814124  0.19207430  0.91394851    -0.04000
C343        C  0.33865929  0.18458026  0.89150926    -0.01100
C344        C  0.36836436  0.15032821  0.89268061     0.03900
C345        C  0.35247553  0.11593346  0.97012516     0.38500
C346        C  0.34372852  0.21470675  0.86968690     0.38500
C347        C  0.39648080  0.14061783  0.86801167     0.37000
C348        C  0.29537353  0.18677080  0.96796499     0.37000
N349        N  0.41869585  0.13272859  0.84826162    -0.37900
N350        N  0.27942246  0.19910012  0.98947496    -0.37900
N351        N  0.34795370  0.23905969  0.85250270    -0.37300
N352        N  0.35696109  0.09816945  0.99186160    -0.37300
C353        C  0.17440255  0.32373538  0.91143380    -0.04000
C354        C  0.17019278  0.34820631  0.93663708    -0.01100
C355        C  0.14035650  0.38236868  0.93785492     0.03900
C356        C  0.11261807  0.39113354  0.91499723    -0.04000
C357        C  0.11285973  0.36399536  0.89208898    -0.01100
C358        C  0.14169842  0.32900428  0.89161557     0.03900
C359        C  0.19338378  0.33637859  0.96271126     0.38500
C360        C  0.08214862  0.37100554  0.86976981     0.38500
C361        C  0.13223245  0.29554791  0.87549208     0.37000
C362        C  0.13785156  0.40836569  0.96287457     0.37000
N363        N  0.12384736  0.26817576  0.86383176    -0.37900
N364        N  0.13580753  0.42912538  0.98278930    -0.37900
N365        N  0.05793596  0.37652259  0.85175096    -0.37300
N366        N  0.21150891  0.32671740  0.98361264    -0.37300
C367        C  0.39102220  0.40670015  0.92500446    -0.04000
C368        C  0.40329280  0.37021221  0.91118532    -0.01100
C369        C  0.37730222  0.34117478  0.91178283     0.03900
C370        C  0.33861865  0.34829548  0.92661962    -0.04000
C371        C  0.32756992  0.38453419  0.94176924    -0.01100
C372        C  0.35330936  0.41384836  0.94041591     0.03900
C373        C  0.44275469  0.36282691  0.89585441     0.38500
C374        C  0.29045297  0.39141792  0.95976423     0.38500
C375        C  0.34123743  0.45129036  0.95516627     0.37000
C376        C  0.39127750  0.30443998  0.89681775     0.37000
N377        N  0.33155703  0.48117058  0.96686803    -0.37900
N378        N  0.40461616  0.27536687  0.88512732    -0.37900
N379        N  0.26094060  0.39753253  0.97420953    -0.37300
N380        N  0.47419449  0.35696318  0.88368639    -0.37300
C381        C  0.99757635  0.01276883  0.80641676    -0.04000
C382        C  0.99286782  0.47828159  0.79118823    -0.01100
C383        C  0.99433357  0.47800081  0.76029776     0.03900
C384        C  0.99978382  0.01250035  0.74414196    -0.04000
C385        C  0.00340411  0.04743591  0.75948773    -0.01100
C386        C  0.00304643  0.04733050  0.79045877     0.03900
C387        C  0.98691472  0.44269300  0.80736796     0.38500
C388        C  0.50762305  0.08358945  0.74352602     0.38500
C389        C  0.50753337  0.08307407  0.80593597     0.37000
C390        C  0.98928767  0.44213173  0.74527495     0.37000
N391        N  0.51115272  0.11163405  0.81821230    -0.37900
N392        N  0.98578218  0.41308110  0.73362246    -0.37900
N393        N  0.51030303  0.11276526  0.73096237    -0.37300
N394        N  0.98190168  0.41429319  0.82014437    -0.37300
C395        C  0.24301928  0.25101737  0.73763184    -0.04000
C396        C  0.20885076  0.27117252  0.75311186    -0.01100
C397        C  0.20608544  0.26860804  0.78401237     0.03900
C398        C  0.23895069  0.24789024  0.80061524    -0.04000
C399        C  0.27316355  0.22713642  0.78443884    -0.01100
C400        C  0.27476432  0.22858416  0.75345348     0.03900
C401        C  0.17654587  0.29582945  0.73730676     0.38500
C402        C  0.30728400  0.20300624  0.79839518     0.38500
C403        C  0.30913503  0.20575672  0.73769398     0.37000
C404        C  0.16782655  0.28643174  0.79771134     0.37000
N405        N  0.33649624  0.18771329  0.72514429    -0.37900
N406        N  0.13661643  0.30178824  0.80702171    -0.37900
N407        N  0.33506739  0.18216952  0.80767673    -0.37300
N408        N  0.15067860  0.31559278  0.72499022    -0.37300
C409        C  0.43531999  0.07135321  0.63072975    -0.04000
C410        C  0.40124437  0.07605357  0.65075605    -0.01100
C411        C  0.37042294  0.10945878  0.64881082     0.03900
C412        C  0.37168234  0.13722820  0.62589354    -0.04000
C413        C  0.40170138  0.12977474  0.60352993    -0.01100
C414        C  0.43188828  0.09589839  0.60501246     0.03900
C415        C  0.39484694  0.04503157  0.67151874     0.38500
C416        C  0.40155558  0.15716091  0.57889562     0.38500
C417        C  0.45603571  0.08476788  0.57860779     0.37000
C418        C  0.33600126  0.11417972  0.66953860     0.37000
N419        N  0.47495931  0.07623082  0.55736506    -0.37900
N420        N  0.30840770  0.11771837  0.68590209    -0.37900
N421        N  0.40147339  0.17913299  0.55937458    -0.37300
N422        N  0.38876709  0.02068603  0.68819475    -0.37300
C423        C  0.13364906  0.37386002  0.62882574    -0.04000
C424        C  0.13346982  0.40018291  0.65218192    -0.01100
C425        C  0.10386818  0.43459506  0.65373186     0.03900
C426        C  0.07135028  0.44076482  0.63359140    -0.04000
C427        C  0.07600778  0.41711669  0.60781308    -0.01100
C428        C  0.10587311  0.38303678  0.60614730     0.03900
C429        C  0.16510139  0.39275207  0.67393248     0.38500
C430        C  0.05268964  0.42903918  0.58178515     0.38500
C431        C  0.10834025  0.35739823  0.58089896     0.37000
C432        C  0.11148105  0.46572213  0.67300189     0.37000
N433        N  0.11039111  0.33682309  0.56087396    -0.37900
N434        N  0.11887688  0.49009083  0.68839681    -0.37900
N435        N  0.53438725  0.43831191  0.56089157    -0.37300
N436        N  0.19034111  0.38689534  0.69123452    -0.37300
C437        C  0.35503417  0.35741317  0.62417970    -0.04000
C438        C  0.37007458  0.37042347  0.59703804    -0.01100
C439        C  0.39702097  0.39856779  0.59631866     0.03900
C440        C  0.40827144  0.41456046  0.62246001    -0.04000
C441        C  0.39302369  0.40216955  0.64948813    -0.01100
C442        C  0.36683718  0.37327563  0.65048788     0.03900
C443        C  0.35862550  0.35418091  0.56986826     0.38500
C444        C  0.40407480  0.41961399  0.67619016     0.38500
C445        C  0.35126235  0.36083854  0.67853492     0.37000
C446        C  0.41381182  0.41098593  0.56875860     0.37000
N447        N  0.33902640  0.35095154  0.70097263    -0.37900
N448        N  0.42738864  0.42093062  0.54679836    -0.37900
N449        N  0.41244382  0.43360987  0.69764425    -0.37300
N450        N  0.34904716  0.34116809  0.54835125    -0.37300
C451        C  0.10081600  0.09377711  0.61434240    -0.04000
C452        C  0.11496598  0.10911359  0.58796646    -0.01100
C453        C  0.14242852  0.13682271  0.58837505     0.03900
C454        C  0.15562782  0.14937792  0.61543385    -0.04000
C455        C  0.14232943  0.13268072  0.64186511    -0.01100
C456        C  0.11456009  0.10536981  0.64123851     0.03900
C457        C  0.10031464  0.09674982  0.56050724     0.38500
C458        C  0.15821093  0.14249713  0.66968819     0.38500
C459        C  0.09921219  0.08972665  0.66824596     0.37000
C460        C  0.15600835  0.15309430  0.56099037     0.37000
N461        N  0.08676288  0.07758005  0.68987608    -0.37900
N462        N  0.16693722  0.16590869  0.53910737    -0.37900
N463        N  0.17108669  0.15018596  0.69182958    -0.37300
N464        N  0.08846415  0.08684906  0.53863616    -0.37300
O465        O  0.19694738  0.84175987  0.60980421    -0.77100
C466        C  0.32625211  0.82815387  0.62480259     0.83900
O467        O  0.26225897  0.73081606  0.55054563    -0.78200
O468        O  0.33703560  0.69861966  0.64338207    -0.79700
O469        O  0.21336154  0.75055952  0.69041937    -0.79500
O470        O  0.16211761  0.80807191  0.64121346    -0.78100
Zn471      Zn  0.24875612  0.80560867  0.59908071     1.55700
O472        O  0.27957294  0.75516624  0.69220500    -0.79500
Cd473      Cd  0.20161913  0.75562366  0.64610467     1.59700
Cd474      Cd  0.26068534  0.71144431  0.59393724     1.59600
O475        O  0.17363049  0.70830907  0.63469489    -0.79500
O476        O  0.25248787  0.75678848  0.62167379    -1.90000
Cd477      Cd  0.29933282  0.75231979  0.64893097     1.59900
O478        O  0.21395214  0.67781589  0.59937241    -0.79500
O479        O  0.33286580  0.79794644  0.64166276    -0.78100
C480        C  0.25685008  0.76557919  0.53930982     0.84400
C481        C  0.16595082  0.83918351  0.62642475     0.84000
O482        O  0.29556963  0.83402346  0.60815220    -0.77100
C483        C  0.24535561  0.75250507  0.70493956     0.84900
O484        O  0.25053585  0.79633187  0.55521132    -0.77200
C485        C  0.18252996  0.68031836  0.61641072     0.85000
C486        C  0.33925011  0.67203208  0.62392143     0.85300
O487        O  0.31413912  0.67387575  0.60306805    -0.79600
C488        C  0.03532719  0.97535553  0.63654711     0.31400
C489        C  0.47197236  0.53753590  0.63450499     0.31400
C490        C  0.49505207  0.96652526  0.62417162    -0.04800
C491        C  0.01963129  0.99301056  0.66659814    -0.05600
C492        C  0.04412482  0.51178440  0.61902606    -0.05500
C493        C  0.46313800  0.99820673  0.62231891    -0.04800
C494        C  0.48820420  0.52556277  0.66545833    -0.05600
C495        C  0.01221794  0.54391888  0.61872309    -0.05500
C496        C  0.42737980  0.98206855  0.62068928    -0.30900
N497        N  0.43686016  0.94215115  0.62150630     0.15600
C498        C  0.47765349  0.93237093  0.62466327    -0.30900
H499        H  0.49316480  0.90271487  0.62909163     0.17600
C500        C  0.47935023  0.53749135  0.69397411    -0.29900
N501        N  0.00207105  0.51188698  0.71238752     0.14400
C502        C  0.02612230  0.98436605  0.69587723    -0.29800
C503        C  0.03062278  0.57757094  0.61671304    -0.30100
N504        N  0.07153501  0.56696359  0.61377298     0.14900
H505        H  0.01559471  0.60764265  0.62004772     0.17500
C506        C  0.08028125  0.52719540  0.61601456    -0.30100
H507        H  0.11083357  0.51106222  0.61871621     0.17500
H508        H  0.04640378  0.95942702  0.70473724     0.17500
H509        H  0.39645579  0.99805452  0.62139626     0.17600
H510        H  0.45710576  0.56233895  0.70099603     0.17500
O511        O  0.03017049  0.58725098  0.94171423    -0.77100
C512        C  0.40465720  0.59185308  0.91997216     0.83900
O513        O  0.99832094  0.97298709  0.99184477    -0.78200
O514        O  0.41234053  0.96550331  0.90634464    -0.79700
O515        O  0.02853346  0.51592487  0.85270334    -0.79500
O516        O  0.07271160  0.55530247  0.90841528    -0.78100
Zn517      Zn  0.98435391  0.55517733  0.94846754     1.55700
O518        O  0.46268848  0.50847543  0.85227650    -0.79500
Cd519      Cd  0.04245577  0.50940267  0.89688411     1.59700
Cd520      Cd  0.99786443  0.96094123  0.94744888     1.59600
O521        O  0.08115835  0.95575123  0.90108888    -0.79500
O522        O  0.99225610  0.50989374  0.92253838    -1.90000
Cd523      Cd  0.44454391  0.51153381  0.89623232     1.59900
O524        O  0.05066775  0.92339067  0.93605096    -0.79500
O525        O  0.40544847  0.56425043  0.90148198    -0.78100
C526        C  0.99111146  0.50570288  0.00540614     0.84400
C527        C  0.06292972  0.58400290  0.92601163     0.84000
O528        O  0.43173075  0.59111084  0.93941344    -0.77100
C529        C  0.99617126  0.51262992  0.83895987     0.84900
O530        O  0.98417067  0.53875322  0.99165785    -0.77200
C531        C  0.07963383  0.92543798  0.91743087     0.85000
C532        C  0.41888469  0.93642262  0.92426991     0.85300
O533        O  0.44953581  0.93096105  0.94094397    -0.79600
C534        C  0.27150478  0.72566021  0.91088841     0.31400
C535        C  0.20966540  0.78864861  0.90894711     0.31400
C536        C  0.28184521  0.76529580  0.92147870    -0.04800
C537        C  0.25282181  0.73609869  0.88023040    -0.05600
C538        C  0.23266952  0.72065594  0.92870502    -0.05500
C539        C  0.25089346  0.79724926  0.91948491    -0.04800
C540        C  0.22336342  0.76970071  0.87906856    -0.05600
C541        C  0.20094415  0.75305509  0.92804429    -0.05500
C542        C  0.26908495  0.83077861  0.91999458    -0.30900
N543        N  0.30963894  0.82048940  0.92513892     0.15600
C544        C  0.31767124  0.78018544  0.92599865    -0.30900
H545        H  0.34751023  0.76265111  0.92842879     0.17600
C546        C  0.21783327  0.77894587  0.84980721    -0.29900
N547        N  0.23779084  0.74901000  0.83286943     0.14400
C548        C  0.25785986  0.72199793  0.85197850    -0.29800
C549        C  0.16481984  0.73753046  0.93186248    -0.30100
N550        N  0.17349658  0.69776650  0.93503804     0.14900
H551        H  0.13429429  0.75338860  0.92862140     0.17500
C552        C  0.21443944  0.68717242  0.93230262    -0.30100
H553        H  0.22947472  0.65704615  0.92912077     0.17500
H554        H  0.27473287  0.69346685  0.84645027     0.17500
H555        H  0.25404275  0.86056038  0.91530413     0.17600
H556        H  0.20189775  0.80682473  0.84184996     0.17500
O557        O  0.45061483  0.92491960  0.10097583    -0.77100
C558        C  0.49094248  0.50529634  0.03776708     0.83900
O559        O  0.07993275  0.94788442  0.13943698    -0.78200
O560        O  0.03449310  0.58134092  0.09961127    -0.79700
O561        O  0.40543356  0.55490300  0.14426150    -0.79500
O562        O  0.41114992  0.95690293  0.13558312    -0.78100
Zn563      Zn  0.49853766  0.95538098  0.09465165     1.55700
O564        O  0.43241059  0.58940918  0.10903124    -0.79500
Cd565      Cd  0.44364431  0.50139127  0.14723577     1.59700
Cd566      Cd  0.04117405  0.50058229  0.14467740     1.59600
O567        O  0.45967405  0.49636829  0.19141625    -0.79500
O568        O  0.49207296  0.50158896  0.11999710    -1.90000
Cd569      Cd  0.48486862  0.55129473  0.09542816     1.59900
O570        O  0.02533526  0.50360201  0.18885267    -0.79500
O571        O  0.48257781  0.53804939  0.05127766    -0.78100
C572        C  0.07892096  0.91832463  0.12302471     0.84400
C573        C  0.41828619  0.92879178  0.11721597     0.84000
O574        O  0.49921242  0.97227174  0.05148748    -0.77100
C575        C  0.40503525  0.58629923  0.12882638     0.84900
O576        O  0.05062048  0.91773758  0.10459262    -0.77200
C577        C  0.49291161  0.50046912  0.20386076     0.85000
C578        C  0.06572644  0.57602949  0.11581101     0.85300
O579        O  0.07246622  0.54714711  0.13391038    -0.79600
C580        C  0.21031451  0.78334976  0.13977269     0.31400
C581        C  0.27477687  0.72166880  0.14129454     0.31400
C582        C  0.24892084  0.78948693  0.12193478    -0.04800
C583        C  0.22909158  0.77277708  0.17027130    -0.05600
C584        C  0.20180197  0.74354566  0.12875144    -0.05500
C585        C  0.28189921  0.75817537  0.12187256    -0.04800
C586        C  0.26093624  0.74075221  0.17075556    -0.05600
C587        C  0.23411123  0.71236543  0.12881859    -0.05500
C588        C  0.31598400  0.77522206  0.11321745    -0.30900
N589        N  0.30516351  0.81497723  0.11018684     0.15600
C590        C  0.26433469  0.82371751  0.11519379    -0.30900
H591        H  0.24782958  0.85344408  0.11759743     0.17600
C592        C  0.27473888  0.73591940  0.19894313    -0.29900
N593        N  0.25343228  0.76481995  0.21555318     0.14400
C594        C  0.22662736  0.78818871  0.19829761    -0.29800
C595        C  0.21834515  0.67970167  0.11902844    -0.30100
N596        N  0.17742781  0.68978826  0.11529584     0.14900
H597        H  0.23453153  0.64992441  0.11665063     0.17500
C598        C  0.16733835  0.72910702  0.12036786    -0.30100
H599        H  0.13651281  0.74534744  0.12024359     0.17500
H600        H  0.20732556  0.81472163  0.20582556     0.17500
H601        H  0.34729761  0.76070474  0.11156576     0.17600
H602        H  0.29859407  0.71322261  0.20682249     0.17500
C603        C  0.47901444  0.56117467  0.40339158     0.31400
C604        C  0.04076122  0.99755812  0.40435728     0.31400
C605        C  0.46834986  0.52341349  0.41863605    -0.04800
C606        C  0.49424086  0.54452648  0.37293469    -0.05600
C607        C  0.01851908  0.56759974  0.41772600    -0.05500
C608        C  0.49978345  0.99093141  0.41880739    -0.04800
C609        C  0.02583923  0.51165474  0.37348406    -0.05600
C610        C  0.04966867  0.53555519  0.41841816    -0.05500
C611        C  0.48118875  0.95751490  0.42043246    -0.30900
N612        N  0.44010189  0.96833177  0.42270575     0.15600
C613        C  0.43190036  0.00838339  0.42072864    -0.30900
H614        H  0.40164080  0.52529049  0.41888093     0.17600
C615        C  0.02452836  0.99260084  0.34707443    -0.29900
N616        N  0.49620969  0.51389147  0.32998155     0.14400
C617        C  0.47608631  0.54418181  0.34594364    -0.29800
C618        C  0.08549390  0.55042639  0.42291944    -0.30100
N619        N  0.07670809  0.59039757  0.42514400     0.14900
H620        H  0.11609104  0.53371643  0.42211796     0.17500
C621        C  0.03602707  0.60112877  0.42140086    -0.30100
H622        H  0.02092016  0.63136404  0.41877161     0.17500
H623        H  0.44946533  0.56389102  0.33851812     0.17500
H624        H  0.49643054  0.92730821  0.41772163     0.17600
H625        H  0.04214399  0.96456848  0.34074211     0.17500
O626        O  0.22020647  0.69767136  0.44117213    -0.77100
C627        C  0.34894533  0.69840226  0.41849160     0.83900
O628        O  0.25046638  0.80490861  0.49570690    -0.78200
O629        O  0.33276287  0.82970404  0.40538315    -0.79700
O630        O  0.22456245  0.77635225  0.35618179    -0.79500
O631        O  0.17828319  0.73405165  0.41027418    -0.78100
Zn632      Zn  0.26607303  0.72865046  0.44781508     1.55700
O633        O  0.29140660  0.77799276  0.35416225    -0.79500
Cd634      Cd  0.20942767  0.78023209  0.40027635     1.59700
Cd635      Cd  0.25138772  0.82403611  0.45203660     1.59600
O636        O  0.17114133  0.83295197  0.40584254    -0.79500
O637        O  0.25852742  0.77767276  0.42505628    -1.90000
Cd638      Cd  0.30657736  0.77975983  0.39794341     1.59900
O639        O  0.19776932  0.86247923  0.44241791    -0.79500
O640        O  0.34996371  0.73049395  0.40418327    -0.78100
C641        C  0.25774576  0.77025237  0.50711845     0.84400
C642        C  0.18777739  0.70345669  0.42631076     0.84000
O643        O  0.31867946  0.69394136  0.43542649    -0.77100
C644        C  0.25789001  0.77591423  0.34151186     0.84900
O645        O  0.26552924  0.73935093  0.49141316    -0.77200
C646        C  0.17075808  0.86198912  0.42298491     0.85000
C647        C  0.32753117  0.85556505  0.42546921     0.85300
O648        O  0.29964736  0.85620281  0.44540299    -0.79600
C649        C  0.16054502  0.67328692  0.42710747    -0.04000
C650        C  0.12825817  0.67543987  0.44800773    -0.01100
C651        C  0.10104838  0.64751399  0.44773448     0.03900
C652        C  0.10580969  0.61765636  0.42631296    -0.04000
C653        C  0.13802877  0.61602248  0.40522231    -0.01100
C654        C  0.16578321  0.64329725  0.40598142     0.03900
C655        C  0.12287142  0.70674211  0.46948630     0.38500
C656        C  0.14124069  0.58802893  0.38155047     0.38500
C657        C  0.19957206  0.64077388  0.38480472     0.37000
C658        C  0.06800318  0.64959874  0.46938451     0.37000
N659        N  0.22661632  0.63854296  0.36801089    -0.37900
N660        N  0.04148401  0.65156202  0.48659388    -0.37900
N661        N  0.14420077  0.56612435  0.36231815    -0.37300
N662        N  0.11875992  0.73187095  0.48648202    -0.37300
C663        C  0.07648982  0.96317700  0.40909351    -0.04000
C664        C  0.10663760  0.95074102  0.38703751    -0.01100
C665        C  0.13570539  0.91644666  0.39126920     0.03900
C666        C  0.13894040  0.89714786  0.41879963    -0.04000
C667        C  0.11326694  0.91270083  0.44218621    -0.01100
C668        C  0.08250424  0.94558568  0.43755289     0.03900
C669        C  0.11222207  0.97526042  0.36158972     0.38500
C670        C  0.11793165  0.89438292  0.47101811     0.38500
C671        C  0.05849017  0.96214948  0.46275117     0.37000
C672        C  0.16368846  0.90193449  0.36740964     0.37000
N673        N  0.53946391  0.97527805  0.48288840    -0.37900
N674        N  0.18580600  0.89016779  0.34838771    -0.37900
N675        N  0.12159580  0.87996066  0.49405856    -0.37300
N676        N  0.11765980  0.49395009  0.34094864    -0.36100
C677        C  0.44623188  0.59833559  0.40709109    -0.04000
C678        C  0.43822884  0.62753191  0.38475440    -0.01100
C679        C  0.40502438  0.65861065  0.38776681     0.03900
C680        C  0.38364226  0.66510623  0.41495293    -0.04000
C681        C  0.39663664  0.64032788  0.43900152    -0.01100
C682        C  0.42769441  0.60740824  0.43520993     0.03900
C683        C  0.46765264  0.63027317  0.36104163     0.38500
C684        C  0.37953882  0.64965381  0.46813169     0.38500
C685        C  0.44271752  0.58505078  0.46106290     0.37000
C686        C  0.39287517  0.68341508  0.36243881     0.37000
N687        N  0.45490251  0.56762948  0.48175366    -0.37900
N688        N  0.38310515  0.70298792  0.34217387    -0.37900
N689        N  0.36610595  0.65713684  0.49136774    -0.37300
N690        N  0.49126514  0.63350096  0.34235742    -0.37300
C691        C  0.41057166  0.94128216  0.42397318    -0.04000
C692        C  0.38026942  0.94287452  0.40256503    -0.01100
C693        C  0.35286898  0.91500544  0.40320364     0.03900
C694        C  0.35514145  0.88580220  0.42553151    -0.04000
C695        C  0.38510325  0.88441451  0.44709442    -0.01100
C696        C  0.41282976  0.91193495  0.44623002     0.03900
C697        C  0.37806216  0.97242953  0.37936024     0.38500
C698        C  0.38854892  0.85354674  0.46941745     0.38500
C699        C  0.44388195  0.91012250  0.46822640     0.37000
C700        C  0.32237168  0.91623751  0.38080344     0.37000
N701        N  0.46901613  0.90857286  0.48555028    -0.37900
N702        N  0.29809659  0.91710974  0.36291201    -0.37900
N703        N  0.39147163  0.82869093  0.48704827    -0.37300
N704        N  0.37617244  0.49629524  0.36105439    -0.37300
C705        C  0.25747159  0.77255489  0.30884995    -0.04000
C706        C  0.28374340  0.79202565  0.29059578    -0.01100
C707        C  0.28311440  0.78858993  0.25982844     0.03900
C708        C  0.25527591  0.76723252  0.24691409    -0.04000
C709        C  0.22936660  0.74757594  0.26479483    -0.01100
C710        C  0.23070027  0.74966220  0.29556709     0.03900
C711        C  0.31052224  0.81681108  0.30318174     0.38500
C712        C  0.20174612  0.72456012  0.25125128     0.38500
C713        C  0.20523999  0.72709111  0.31330679     0.37000
C714        C  0.31169093  0.80639679  0.24136891     0.37000
N715        N  0.18481526  0.70907137  0.32732350    -0.37900
N716        N  0.33517909  0.82030484  0.22699032    -0.37900
N717        N  0.17974125  0.70610659  0.24048018    -0.37300
N718        N  0.33177928  0.83667855  0.31323237    -0.37300
C719        C  0.49470421  0.51027528  0.29864419    -0.04000
C720        C  0.47225423  0.48340300  0.28602170    -0.01100
C721        C  0.47181854  0.47963566  0.25518262     0.03900
C722        C  0.49394602  0.50303955  0.23665702    -0.04000
C723        C  0.01751947  0.52916039  0.24980445    -0.01100
C724        C  0.01794137  0.53244894  0.28052172     0.03900
C725        C  0.45069045  0.45885508  0.30500063     0.38500
C726        C  0.04159798  0.55298295  0.23201646     0.38500
C727        C  0.04350291  0.55782230  0.29381539     0.37000
C728        C  0.45053909  0.44997923  0.24281457     0.37000
N729        N  0.06423088  0.57776766  0.30438879    -0.37900
N730        N  0.43382278  0.42597100  0.23312085    -0.37900
N731        N  0.06137068  0.57168187  0.21804299    -0.37300
N732        N  0.43377862  0.43892843  0.32014509    -0.37300
C733        C  0.09408639  0.60560985  0.11478391    -0.04000
C734        C  0.09089863  0.63438976  0.13677072    -0.01100
C735        C  0.11887200  0.66149364  0.13716927     0.03900
C736        C  0.14872898  0.66190552  0.11447773    -0.04000
C737        C  0.15153579  0.63342524  0.09215958    -0.01100
C738        C  0.12471111  0.60488163  0.09258093     0.03900
C739        C  0.05841924  0.63647088  0.15893443     0.38500
C740        C  0.18195336  0.63366353  0.06879917     0.38500
C741        C  0.12925102  0.57417421  0.07069724     0.37000
C742        C  0.11836606  0.68733756  0.16201418     0.37000
N743        N  0.13309788  0.54942314  0.05340441    -0.37900
N744        N  0.11792011  0.70756541  0.18209680    -0.37900
N745        N  0.20625812  0.63384182  0.05013115    -0.37300
N746        N  0.03229727  0.63868513  0.17645706    -0.37300
C747        C  0.11067349  0.88289210  0.12674116    -0.04000
C748        C  0.11601654  0.86447126  0.15451639    -0.01100
C749        C  0.14471401  0.82973851  0.15815217     0.03900
C750        C  0.17318037  0.81654022  0.13530653    -0.04000
C751        C  0.16417486  0.83239914  0.10666148    -0.01100
C752        C  0.13373089  0.86574853  0.10260798     0.03900
C753        C  0.09066576  0.88031348  0.17932615     0.38500
C754        C  0.18423442  0.81325942  0.08084123     0.38500
C755        C  0.12696511  0.88306921  0.07361295     0.37000
C756        C  0.13923405  0.80470291  0.18329574     0.37000
N757        N  0.12165399  0.89684096  0.05048297    -0.37900
N758        N  0.13355831  0.78541159  0.20356967    -0.37900
N759        N  0.19993613  0.79798511  0.06018442    -0.37300
N760        N  0.07072721  0.89319741  0.19912757    -0.37300
C761        C  0.37238650  0.62063320  0.13506944    -0.04000
C762        C  0.38254255  0.65913437  0.13798499    -0.01100
C763        C  0.35161602  0.69124766  0.14484994     0.03900
C764        C  0.30998489  0.68629335  0.14417689    -0.04000
C765        C  0.30199604  0.64736395  0.14979042    -0.01100
C766        C  0.33193213  0.61469466  0.14267684     0.03900
C767        C  0.42485501  0.66558633  0.13563005     0.38500
C768        C  0.26659879  0.64094926  0.16763742     0.38500
C769        C  0.32044791  0.57541513  0.14277963     0.37000
C770        C  0.36288631  0.72566566  0.15881050     0.37000
N771        N  0.31109074  0.54415885  0.14270680    -0.37900
N772        N  0.37198063  0.75287904  0.17027580    -0.37900
N773        N  0.23861526  0.63582461  0.18213478    -0.37300
N774        N  0.45856306  0.67087435  0.13358911    -0.37300
C775        C  0.33317130  0.84343423  0.11161081    -0.04000
C776        C  0.33310592  0.86708117  0.13663478    -0.01100
C777        C  0.36051759  0.89470107  0.13851875     0.03900
C778        C  0.38843007  0.89968291  0.11498237    -0.04000
C779        C  0.38748090  0.87629309  0.08948716    -0.01100
C780        C  0.36063100  0.84784560  0.08824757     0.03900
C781        C  0.30470823  0.86275445  0.16078773     0.38500
C782        C  0.41255244  0.88228758  0.06376931     0.38500
C783        C  0.36042984  0.82345369  0.06260910     0.37000
C784        C  0.35956277  0.91747247  0.16514983     0.37000
N785        N  0.36034765  0.80384823  0.04220308    -0.37900
N786        N  0.35827616  0.93565080  0.18639615    -0.37900
N787        N  0.43223250  0.88706269  0.04308327    -0.37300
N788        N  0.28144958  0.85977402  0.17973750    -0.37300
C789        C  0.14446299  0.67080587  0.93265036    -0.04000
C790        C  0.12315623  0.65976088  0.95767405    -0.01100
C791        C  0.09680128  0.63116020  0.95572843     0.03900
C792        C  0.09046735  0.61449264  0.92827106    -0.04000
C793        C  0.11100394  0.62695039  0.90298000    -0.01100
C794        C  0.13856596  0.65426231  0.90538663     0.03900
C795        C  0.12930934  0.67730812  0.98554608     0.38500
C796        C  0.10317355  0.61270245  0.87424141     0.38500
C797        C  0.16145676  0.66516542  0.87984920     0.37000
C798        C  0.07789545  0.61771688  0.98228244     0.37000
N799        N  0.18000176  0.67348315  0.85948912    -0.37900
N800        N  0.06294327  0.60684642  0.00345572    -0.37900
N801        N  0.09700862  0.60152447  0.85125450    -0.37300
N802        N  0.13400109  0.69134771  0.00783930    -0.37300
C803        C  0.37194405  0.62654866  0.91824189    -0.04000
C804        C  0.34682804  0.63830336  0.94290017    -0.01100
C805        C  0.31592118  0.67159170  0.94110116     0.03900
C806        C  0.30813360  0.69206774  0.91395699    -0.04000
C807        C  0.33864457  0.68457117  0.89151334    -0.01100
C808        C  0.36834928  0.65031874  0.89268298     0.03900
C809        C  0.35250743  0.61595873  0.97014257     0.38500
C810        C  0.34371077  0.71469799  0.86969067     0.38500
C811        C  0.39645665  0.64060350  0.86800954     0.37000
C812        C  0.29539770  0.68679043  0.96797811     0.37000
N813        N  0.41866531  0.63270892  0.84825685    -0.37900
N814        N  0.27946133  0.69913246  0.98948966    -0.37900
N815        N  0.34793580  0.73905258  0.85250707    -0.37300
N816        N  0.35701078  0.59821067  0.99188447    -0.37300
C817        C  0.17439089  0.82372296  0.91142804    -0.04000
C818        C  0.17018857  0.84820188  0.93662694    -0.01100
C819        C  0.14035086  0.88236275  0.93784384     0.03900
C820        C  0.11260222  0.89111711  0.91499189    -0.04000
C821        C  0.11283951  0.86397404  0.89208722    -0.01100
C822        C  0.14168120  0.82898476  0.89161401     0.03900
C823        C  0.19339002  0.83638450  0.96269768     0.38500
C824        C  0.08212433  0.87097840  0.86977120     0.38500
C825        C  0.13221293  0.79552513  0.87549568     0.37000
C826        C  0.13785688  0.90837084  0.96285687     0.37000
N827        N  0.12382474  0.76815216  0.86383749    -0.37900
N828        N  0.13582196  0.92913946  0.98276547    -0.37900
N829        N  0.05790834  0.87649052  0.85175342    -0.37300
N830        N  0.21152526  0.82673039  0.98359672    -0.37300
C831        C  0.39100352  0.90670084  0.92501869    -0.04000
C832        C  0.40328815  0.87020414  0.91121473    -0.01100
C833        C  0.37729729  0.84116737  0.91180645     0.03900
C834        C  0.33860221  0.84829504  0.92662746    -0.04000
C835        C  0.32753917  0.88454320  0.94176272    -0.01100
C836        C  0.35327344  0.91386121  0.94040742     0.03900
C837        C  0.44275928  0.86281407  0.89589704     0.38500
C838        C  0.29040938  0.89143624  0.95974469     0.38500
C839        C  0.34117388  0.95132224  0.95512598     0.37000
C840        C  0.39127850  0.80442997  0.89684592     0.37000
N841        N  0.33146720  0.98121975  0.96680027    -0.37900
N842        N  0.40461546  0.77535344  0.88515819    -0.37900
N843        N  0.26088933  0.89756055  0.97417926    -0.37300
N844        N  0.47420634  0.85694874  0.88373830    -0.37300
C845        C  0.99760669  0.51279611  0.80640880    -0.04000
C846        C  0.99283352  0.97825442  0.79119816    -0.01100
C847        C  0.99429700  0.97797240  0.76030793     0.03900
C848        C  0.99981798  0.51253005  0.74413198    -0.04000
C849        C  0.00343355  0.54746549  0.75947929    -0.01100
C850        C  0.00307455  0.54735920  0.79045099     0.03900
C851        C  0.98688047  0.94266701  0.80738003     0.38500
C852        C  0.50764599  0.58362098  0.74351830     0.38500
C853        C  0.50755542  0.58310363  0.80592863     0.37000
C854        C  0.98924813  0.94210367  0.74528634     0.37000
N855        N  0.51116952  0.61166522  0.81820475    -0.37900
N856        N  0.98573950  0.91305187  0.73363591    -0.37900
N857        N  0.51032037  0.61279908  0.73095574    -0.37300
N858        N  0.98186792  0.91426968  0.82015925    -0.37300
C859        C  0.24301197  0.75098692  0.73763895    -0.04000
C860        C  0.20884726  0.77115034  0.75311794    -0.01100
C861        C  0.20607486  0.76857871  0.78401789     0.03900
C862        C  0.23893337  0.74785101  0.80062199    -0.04000
C863        C  0.27314419  0.72709017  0.78444634    -0.01100
C864        C  0.27474620  0.72853766  0.75346079     0.03900
C865        C  0.17655369  0.79582250  0.73731300     0.38500
C866        C  0.30726334  0.70296000  0.79840440     0.38500
C867        C  0.30910628  0.70569410  0.73770104     0.37000
C868        C  0.16781746  0.78640838  0.79771425     0.37000
N869        N  0.33645851  0.68763703  0.72515153    -0.37900
N870        N  0.13660724  0.80177162  0.80702426    -0.37900
N871        N  0.33504646  0.68212669  0.80768845    -0.37300
N872        N  0.15069471  0.81559828  0.72499630    -0.37300
C873        C  0.43533151  0.57136095  0.63072181    -0.04000
C874        C  0.40125636  0.57605425  0.65074823    -0.01100
C875        C  0.37042972  0.60945426  0.64880437     0.03900
C876        C  0.37168676  0.63722980  0.62589121    -0.04000
C877        C  0.40171024  0.62978839  0.60352987    -0.01100
C878        C  0.43190011  0.59591460  0.60500836     0.03900
C879        C  0.39487014  0.54503105  0.67151402     0.38500
C880        C  0.40156637  0.65718576  0.57890231     0.38500
C881        C  0.45605046  0.58479705  0.57860250     0.37000
C882        C  0.33600568  0.61416524  0.66953062     0.37000
N883        N  0.47497653  0.57627274  0.55735882    -0.37900
N884        N  0.30841136  0.61769505  0.68589222    -0.37900
N885        N  0.40148625  0.67916681  0.55938733    -0.37300
N886        N  0.38880228  0.52068411  0.68819132    -0.37300
C887        C  0.13365437  0.87386582  0.62883203    -0.04000
C888        C  0.13346029  0.90017674  0.65219760    -0.01100
C889        C  0.10385699  0.93458739  0.65374860     0.03900
C890        C  0.07134941  0.94076605  0.63360036    -0.04000
C891        C  0.07601967  0.91712929  0.60781596    -0.01100
C892        C  0.10588903  0.88305276  0.60614835     0.03900
C893        C  0.16507774  0.89273454  0.67395754     0.38500
C894        C  0.05270790  0.92905910  0.58178674     0.38500
C895        C  0.10836793  0.85742425  0.58089277     0.37000
C896        C  0.11145881  0.96570570  0.67303106     0.37000
N897        N  0.11042706  0.83685841  0.56086352    -0.37900
N898        N  0.11884534  0.99006553  0.68843686    -0.37900
N899        N  0.53440989  0.93833785  0.56089248    -0.37300
N900        N  0.19030618  0.88686881  0.69126763    -0.37300
C901        C  0.35505128  0.85739406  0.62418758    -0.04000
C902        C  0.37010825  0.87038521  0.59704520    -0.01100
C903        C  0.39705883  0.89852514  0.59632359     0.03900
C904        C  0.40828601  0.91454283  0.62246196    -0.04000
C905        C  0.39302593  0.90216691  0.64949066    -0.01100
C906        C  0.36684399  0.87326958  0.65049353     0.03900
C907        C  0.35867035  0.85412791  0.56987769     0.38500
C908        C  0.40406567  0.91962555  0.67619022     0.38500
C909        C  0.35126562  0.86083935  0.67854171     0.37000
C910        C  0.41388405  0.91090841  0.56876437     0.37000
N911        N  0.33902888  0.85095649  0.70097994    -0.37900
N912        N  0.42749177  0.92082085  0.54680594    -0.37900
N913        N  0.41242641  0.93363132  0.69764228    -0.37300
N914        N  0.34910059  0.84110468  0.54836229    -0.37300
C915        C  0.10082364  0.59377357  0.61433984    -0.04000
C916        C  0.11497508  0.60911413  0.58796604    -0.01100
C917        C  0.14243010  0.63682952  0.58837968     0.03900
C918        C  0.15562266  0.64938478  0.61544001    -0.04000
C919        C  0.14231460  0.63269105  0.64187018    -0.01100
C920        C  0.11455120  0.60537434  0.64123865     0.03900
C921        C  0.10032839  0.59675276  0.56050534     0.38500
C922        C  0.15817397  0.64252146  0.66969700     0.38500
C923        C  0.09918990  0.58973668  0.66824356     0.37000
C924        C  0.15600225  0.65311414  0.56099681     0.37000
N925        N  0.08672871  0.57759412  0.68987140    -0.37900
N926        N  0.16692170  0.66594042  0.53911630    -0.37900
N927        N  0.17103011  0.65022310  0.69184235    -0.37300
N928        N  0.08847936  0.58685364  0.53863232    -0.37300
O929        O  0.69693946  0.34175477  0.60979536    -0.77100
C930        C  0.82624107  0.32816643  0.62479264     0.83900
O931        O  0.76226983  0.23081231  0.55053822    -0.78200
O932        O  0.83703464  0.19862477  0.64337829    -0.79700
O933        O  0.71336297  0.25056672  0.69041488    -0.79500
O934        O  0.66211367  0.30806671  0.64120736    -0.78100
Zn935      Zn  0.74875002  0.30560874  0.59907158     1.55700
O936        O  0.77957072  0.25519083  0.69219383    -0.79500
Cd937      Cd  0.70161910  0.25562096  0.64609929     1.59700
Cd938      Cd  0.76068669  0.21144403  0.59393032     1.59600
O939        O  0.67363543  0.20830172  0.63469026    -0.79500
O940        O  0.75248575  0.25678978  0.62166589    -1.90000
Cd941      Cd  0.79933211  0.25232803  0.64892084     1.59900
O942        O  0.71395153  0.17781627  0.59936163    -0.79500
O943        O  0.83286241  0.29795586  0.64164917    -0.78100
C944        C  0.75685642  0.26557484  0.53930129     0.84400
C945        C  0.66594490  0.33917792  0.62641763     0.84000
O946        O  0.79555594  0.33403349  0.60814465    -0.77100
C947        C  0.74535701  0.25252599  0.70493198     0.84900
O948        O  0.75053417  0.29632828  0.55520186    -0.77200
C949        C  0.68253284  0.18031406  0.61640252     0.85000
C950        C  0.83924832  0.17203332  0.62392039     0.85300
O951        O  0.81413761  0.17387461  0.60306691    -0.79600
C952        C  0.53533202  0.47535844  0.63653752     0.31400
C953        C  0.97196175  0.03752892  0.63451491     0.31400
C954        C  0.99505022  0.46652813  0.62417226    -0.04800
C955        C  0.51964938  0.49302448  0.66658796    -0.05600
C956        C  0.54412003  0.01178783  0.61904411    -0.05500
C957        C  0.96314070  0.49821208  0.62231780    -0.04800
C958        C  0.98818447  0.02554756  0.66546902    -0.05600
C959        C  0.51221129  0.04391957  0.61874052    -0.05500
C960        C  0.92737917  0.48208051  0.62068565    -0.30900
N961        N  0.93685213  0.44216307  0.62150675     0.15600
C962        C  0.97764536  0.43237681  0.62466647    -0.30900
H963        H  0.99315160  0.40271979  0.62909532     0.17600
C964        C  0.97932181  0.03746689  0.69398577    -0.29900
N965        N  0.50203642  0.01185811  0.71239797     0.14400
C966        C  0.52615162  0.48439159  0.69586739    -0.29800
C967        C  0.53061302  0.07757319  0.61672418    -0.30100
N968        N  0.57152657  0.06696749  0.61378150     0.14900
H969        H  0.51558196  0.10764648  0.62005384     0.17500
C970        C  0.58027484  0.02719934  0.61602858    -0.30100
H971        H  0.61082942  0.01106664  0.61872977     0.17500
H972        H  0.54643922  0.45945261  0.70472929     0.17500
H973        H  0.89645579  0.49807252  0.62138750     0.17600
H974        H  0.95707543  0.06231590  0.70100949     0.17500
O975        O  0.53017618  0.08724021  0.94169726    -0.77100
C976        C  0.90465781  0.09185418  0.91996855     0.83900
O977        O  0.49832079  0.47298999  0.99184369    -0.78200
O978        O  0.91236447  0.46549974  0.90632700    -0.79700
O979        O  0.52851118  0.01590150  0.85270547    -0.79500
O980        O  0.57270921  0.05528010  0.90839933    -0.78100
Zn981      Zn  0.48435485  0.05517297  0.94846335     1.55700
O982        O  0.96266560  0.00845228  0.85228630    -0.79500
Cd983      Cd  0.54244269  0.00938396  0.89688181     1.59700
Cd984      Cd  0.49787246  0.46094984  0.94744574     1.59600
O985        O  0.58117564  0.45577022  0.90109438    -0.79500
O986        O  0.49224727  0.00988391  0.92254079    -1.90000
Cd987      Cd  0.94452870  0.01152595  0.89624123     1.59900
O988        O  0.55068037  0.42340537  0.93605170    -0.79500
O989        O  0.90544366  0.06424873  0.90148193    -0.78100
C990        C  0.49111443  0.00570219  0.00540516     0.84400
C991        C  0.56293264  0.08398637  0.92599097     0.84000
O992        O  0.93173247  0.09111165  0.93940934    -0.77100
C993        C  0.49614644  0.01260437  0.83896649     0.84900
O994        O  0.48417543  0.03875131  0.99165529    -0.77200
C995        C  0.57964998  0.42545549  0.91743528     0.85000
C996        C  0.91890480  0.43642118  0.92425473     0.85300
O997        O  0.94954966  0.43096445  0.94093461    -0.79600
C998        C  0.77151688  0.22567157  0.91088026     0.31400
C999        C  0.70967754  0.28866192  0.90894869     0.31400
C1000       C  0.78185123  0.26529807  0.92149575    -0.04800
C1001       C  0.75285078  0.23613525  0.88022096    -0.05600
C1002       C  0.73267089  0.22065356  0.92867882    -0.05500
C1003       C  0.75089900  0.29725357  0.91950815    -0.04800
C1004       C  0.72339426  0.26973879  0.87906374    -0.05600
C1005       C  0.70094576  0.25305189  0.92802410    -0.05500
C1006       C  0.76909586  0.33078143  0.92000717    -0.30900
N1007       N  0.80965349  0.32049019  0.92513932     0.15600
C1008       C  0.81768324  0.28018704  0.92599761    -0.30900
H1009       H  0.84752487  0.26265135  0.92841079     0.17600
C1010       C  0.71785499  0.27898482  0.84980241    -0.29900
N1011       N  0.73781049  0.24905245  0.83286245     0.14400
C1012       C  0.75788181  0.22203646  0.85196830    -0.29800
C1013       C  0.66482037  0.23752326  0.93182773    -0.30100
N1014       N  0.67349940  0.19775750  0.93498801     0.14900
H1015       H  0.63429582  0.25338170  0.92859400     0.17500
C1016       C  0.71444250  0.18716621  0.93225696    -0.30100
H1017       H  0.72948011  0.15704419  0.92907158     0.17500
H1018       H  0.77474349  0.19350774  0.84643745     0.17500
H1019       H  0.75405721  0.36055990  0.91531493     0.17600
H1020       H  0.70190599  0.30686219  0.84184585     0.17500
O1021       O  0.95059537  0.42493185  0.10097536    -0.77100
C1022       C  0.99094542  0.00529713  0.03776601     0.83900
O1023       O  0.57992616  0.44786902  0.13943137    -0.78200
O1024       O  0.53448500  0.08134965  0.09960228    -0.79700
O1025       O  0.90542530  0.05489954  0.14425775    -0.79500
O1026       O  0.91114031  0.45691637  0.13558680    -0.78100
Zn1027     Zn  0.99852613  0.45538021  0.09465171     1.55700
O1028       O  0.93240297  0.08940682  0.10902853    -0.79500
Cd1029     Cd  0.94364243  0.00138915  0.14723268     1.59700
Cd1030     Cd  0.54117289  0.00059598  0.14467385     1.59600
O1031       O  0.95967348  0.99637169  0.19141435    -0.79500
O1032       O  0.99207240  0.00159257  0.11999482    -1.90000
Cd1033     Cd  0.98486317  0.05129763  0.09542478     1.59900
O1034       O  0.52533023  0.00362653  0.18884684    -0.79500
O1035       O  0.98257274  0.03805075  0.05127544    -0.78100
C1036       C  0.57890554  0.41831062  0.12301943     0.84400
C1037       C  0.91826760  0.42880921  0.11721654     0.84000
O1038       O  0.99920316  0.47226931  0.05148776    -0.77100
C1039       C  0.90502747  0.08629685  0.12882303     0.84900
O1040       O  0.55060125  0.41772766  0.10458999    -0.77200
C1041       C  0.99290928  0.00048581  0.20385667     0.85000
C1042       C  0.56572144  0.07603934  0.11579907     0.85300
O1043       O  0.57246325  0.04715913  0.13389990    -0.79600
C1044       C  0.71030432  0.28334771  0.13976414     0.31400
C1045       C  0.77477536  0.22167613  0.14127625     0.31400
C1046       C  0.74890851  0.28949912  0.12193015    -0.04800
C1047       C  0.72908109  0.27276734  0.17026186    -0.05600
C1048       C  0.70180091  0.24354591  0.12873262    -0.05500
C1049       C  0.78189203  0.25819278  0.12186260    -0.04800
C1050       C  0.76093030  0.24074695  0.17074059    -0.05600
C1051       C  0.73411406  0.21237039  0.12879526    -0.05500
C1052       C  0.81597065  0.27524830  0.11320575    -0.30900
N1053       N  0.80514046  0.31500324  0.11018082     0.15600
C1054       C  0.76431307  0.32373540  0.11519158    -0.30900
H1055       H  0.74780196  0.35346098  0.11759818     0.17600
C1056       C  0.77474247  0.23591309  0.19892573    -0.29900
N1057       N  0.75343663  0.26480935  0.21553978     0.14400
C1058       C  0.72662367  0.28817633  0.19828932    -0.29800
C1059       C  0.71835347  0.17970529  0.11900138    -0.30100
N1060       N  0.67743525  0.18978765  0.11526891     0.14900
H1061       H  0.73454357  0.14992928  0.11662499     0.17500
C1062       C  0.66734131  0.22910493  0.12034460    -0.30100
H1063       H  0.63651357  0.24534210  0.12022308     0.17500
H1064       H  0.70732203  0.31470758  0.20582075     0.17500
H1065       H  0.84728533  0.26073835  0.11154821     0.17600
H1066       H  0.79860432  0.21322144  0.20679960     0.17500
C1067       C  0.97902696  0.06119265  0.40337166     0.31400
C1068       C  0.54074708  0.49753483  0.40436854     0.31400
C1069       C  0.96834428  0.02341601  0.41857964    -0.04800
C1070       C  0.99430122  0.04458061  0.37291492    -0.05600
C1071       C  0.51850596  0.06760778  0.41774749    -0.05500
C1072       C  0.99978980  0.49092553  0.41885890    -0.04800
C1073       C  0.52590293  0.01170881  0.37346784    -0.05600
C1074       C  0.54965906  0.03556483  0.41844294    -0.05500
C1075       C  0.98119417  0.45751042  0.42049771    -0.30900
N1076       N  0.94010863  0.46832798  0.42278155     0.15600
C1077       C  0.93190833  0.50837867  0.42080130    -0.30900
H1078       H  0.90163713  0.02529544  0.41880991     0.17600
C1079       C  0.52448175  0.49256370  0.34708228    -0.29900
N1080       N  0.99624813  0.01391581  0.32997386     0.14400
C1081       C  0.97612993  0.04421136  0.34593196    -0.29800
C1082       C  0.58547982  0.05044497  0.42294688    -0.30100
N1083       N  0.57668826  0.09041380  0.42517600     0.14900
H1084       H  0.61608274  0.03374110  0.42213546     0.17500
C1085       C  0.53600828  0.10114005  0.42142779    -0.30100
H1086       H  0.52090317  0.13137161  0.41878997     0.17500
H1087       H  0.94949848  0.06390468  0.33851208     0.17500
H1088       H  0.99643161  0.42730416  0.41777782     0.17600
H1089       H  0.54210828  0.46453741  0.34074076     0.17500
O1090       O  0.72020291  0.19767499  0.44117480    -0.77100
C1091       C  0.84894457  0.19840400  0.41847233     0.83900
O1092       O  0.75046211  0.30490111  0.49569744    -0.78200
O1093       O  0.83277515  0.32970514  0.40538334    -0.79700
O1094       O  0.72457837  0.27632836  0.35616854    -0.79500
O1095       O  0.67828731  0.23404880  0.41026889    -0.78100
Zn1096     Zn  0.76607890  0.22864748  0.44780548     1.55700
O1097       O  0.79141706  0.27799804  0.35415039    -0.79500
Cd1098     Cd  0.70943863  0.28022204  0.40026273     1.59700
Cd1099     Cd  0.75139253  0.32402704  0.45202766     1.59600
O1100       O  0.67115492  0.33294473  0.40582425    -0.79500
O1101       O  0.75853456  0.27766777  0.42504536    -1.90000
Cd1102     Cd  0.80658356  0.27976546  0.39793332     1.59900
O1103       O  0.69777876  0.36247013  0.44240263    -0.79500
O1104       O  0.84996657  0.23050003  0.40417053    -0.78100
C1105       C  0.75775411  0.27024618  0.50710963     0.84400
C1106       C  0.68777399  0.20346022  0.42631333     0.84000
O1107       O  0.81867742  0.19393874  0.43540456    -0.77100
C1108       C  0.75790500  0.27590182  0.34149918     0.84900
O1109       O  0.76554951  0.23934540  0.49140458    -0.77200
C1110       C  0.67076946  0.36198069  0.42296807     0.85000
C1111       C  0.82754456  0.35555604  0.42547669     0.85300
O1112       O  0.79965703  0.35618827  0.44540692    -0.79600
C1113       C  0.66053438  0.17329638  0.42711681    -0.04000
C1114       C  0.62826265  0.17544639  0.44802953    -0.01100
C1115       C  0.60104436  0.14752736  0.44776055     0.03900
C1116       C  0.60578567  0.11767794  0.42633385    -0.04000
C1117       C  0.63798253  0.11605330  0.40522668    -0.01100
C1118       C  0.66574632  0.14331900  0.40598183     0.03900
C1119       C  0.62290023  0.20673844  0.46951590     0.38500
C1120       C  0.64115438  0.08808625  0.38154058     0.38500
C1121       C  0.69952171  0.14079421  0.38479388     0.37000
C1122       C  0.56800686  0.14961558  0.46941709     0.37000
N1123       N  0.72655632  0.13855938  0.36799223    -0.37900
N1124       N  0.54149327  0.15158373  0.48663103    -0.37900
N1125       N  0.64407856  0.06620541  0.36229373    -0.37300
N1126       N  0.61880866  0.23185897  0.48651790    -0.37300
C1127       C  0.57648022  0.46315613  0.40909707    -0.04000
C1128       C  0.60661420  0.45072231  0.38703196    -0.01100
C1129       C  0.63568865  0.41643068  0.39125656     0.03900
C1130       C  0.63894575  0.39713606  0.41878817    -0.04000
C1131       C  0.61328994  0.41269195  0.44218297    -0.01100
C1132       C  0.58252232  0.44557460  0.43755737     0.03900
C1133       C  0.61218077  0.47524626  0.36158373     0.38500
C1134       C  0.61797870  0.39438069  0.47101584     0.38500
C1135       C  0.55853646  0.46214833  0.46276490     0.37000
C1136       C  0.66365674  0.40191959  0.36738875     0.37000
N1137       N  0.03953340  0.47528330  0.48290969    -0.37900
N1138       N  0.68576289  0.39015328  0.34836044    -0.37900
N1139       N  0.62166281  0.37996350  0.49405728    -0.37300
N1140       N  0.61771684  0.99395606  0.34095387    -0.36100
C1141       C  0.94623836  0.09834733  0.40706841    -0.04000
C1142       C  0.93824244  0.12755223  0.38473629    -0.01100
C1143       C  0.90503653  0.15862838  0.38774920     0.03900
C1144       C  0.88364133  0.16510990  0.41493124    -0.04000
C1145       C  0.89662334  0.14031983  0.43897648    -0.01100
C1146       C  0.92768066  0.10740127  0.43518344     0.03900
C1147       C  0.96767170  0.13030262  0.36102798     0.38500
C1148       C  0.87951657  0.14963474  0.46810540     0.38500
C1149       C  0.94268064  0.08502273  0.46103329     0.37000
C1150       C  0.89290344  0.18345041  0.36242550     0.37000
N1151       N  0.95484754  0.06758431  0.48172190    -0.37900
N1152       N  0.88314990  0.20303621  0.34216540    -0.37900
N1153       N  0.86607683  0.15711063  0.49134141    -0.37300
N1154       N  0.99128604  0.13353728  0.34234692    -0.37300
C1155       C  0.91058077  0.44127605  0.42403310    -0.04000
C1156       C  0.88029217  0.44287527  0.40261416    -0.01100
C1157       C  0.85289565  0.41500322  0.40323431     0.03900
C1158       C  0.85515902  0.38578871  0.42555340    -0.04000
C1159       C  0.88511013  0.38439093  0.44712535    -0.01100
C1160       C  0.91283404  0.41191399  0.44627855     0.03900
C1161       C  0.87809816  0.47243899  0.37941608     0.38500
C1162       C  0.88854658  0.35351182  0.46943949     0.38500
C1163       C  0.94388336  0.41008501  0.46827879     0.37000
C1164       C  0.82241028  0.41624575  0.38082473     0.37000
N1165       N  0.96901644  0.40852078  0.48560437    -0.37900
N1166       N  0.79814477  0.41712728  0.36292576    -0.37900
N1167       N  0.89146133  0.32864694  0.48706355    -0.37300
N1168       N  0.87612384  0.99627762  0.36099288    -0.37300
C1169       C  0.75749030  0.27253674  0.30883691    -0.04000
C1170       C  0.78375605  0.29201286  0.29058149    -0.01100
C1171       C  0.78312411  0.28857910  0.25981363     0.03900
C1172       C  0.75528808  0.26721700  0.24690097    -0.04000
C1173       C  0.72938849  0.24755114  0.26478259    -0.01100
C1174       C  0.73072582  0.24963597  0.29555490     0.03900
C1175       C  0.81053128  0.31680321  0.30316608     0.38500
C1176       C  0.70177203  0.22453010  0.25124029     0.38500
C1177       C  0.70527346  0.22705718  0.31329474     0.37000
C1178       C  0.81169229  0.30639371  0.24135320     0.37000
N1179       N  0.68485324  0.20903168  0.32730988    -0.37900
N1180       N  0.83517528  0.32030933  0.22697292    -0.37900
N1181       N  0.67976971  0.20607275  0.24046965    -0.37300
N1182       N  0.83178512  0.33667417  0.31321582    -0.37300
C1183       C  0.99473505  0.01029266  0.29863825    -0.04000
C1184       C  0.97229614  0.98340659  0.28602168    -0.01100
C1185       C  0.97184451  0.97964196  0.25518294     0.03900
C1186       C  0.99394868  0.00306108  0.23665208    -0.04000
C1187       C  0.51751205  0.02919527  0.24979384    -0.01100
C1188       C  0.51794826  0.03248179  0.28050994     0.03900
C1189       C  0.95076167  0.95884092  0.30500733     0.38500
C1190       C  0.54156785  0.05303428  0.23200030     0.38500
C1191       C  0.54350251  0.05786811  0.29379754     0.37000
C1192       C  0.95057468  0.94997590  0.24282030     0.37000
N1193       N  0.56422434  0.07782277  0.30436622    -0.37900
N1194       N  0.93386449  0.92595863  0.23313058    -0.37900
N1195       N  0.56132292  0.07174544  0.21802458    -0.37300
N1196       N  0.93387580  0.93890092  0.32015784    -0.37300
C1197       C  0.59408406  0.10561730  0.11476668    -0.04000
C1198       C  0.59089741  0.13440337  0.13674886    -0.01100
C1199       C  0.61887973  0.16149867  0.13714746     0.03900
C1200       C  0.64873803  0.16190266  0.11445565    -0.04000
C1201       C  0.65154506  0.13341534  0.09214237    -0.01100
C1202       C  0.62471701  0.10487423  0.09256817     0.03900
C1203       C  0.55841338  0.13649822  0.15890917     0.38500
C1204       C  0.68196806  0.13364065  0.06878453     0.38500
C1205       C  0.62926524  0.07415147  0.07069604     0.37000
C1206       C  0.61838599  0.18733540  0.16199469     0.37000
N1207       N  0.63312024  0.04938696  0.05341367    -0.37900
N1208       N  0.61795261  0.20755682  0.18208104    -0.37900
N1209       N  0.70627804  0.13380751  0.05011833    -0.37300
N1210       N  0.53228710  0.13872485  0.17642987    -0.37300
C1211       C  0.61065260  0.38287503  0.12673408    -0.04000
C1212       C  0.61599274  0.36445241  0.15450891    -0.01100
C1213       C  0.64469796  0.32972536  0.15814593     0.03900
C1214       C  0.67316550  0.31653181  0.13529988    -0.04000
C1215       C  0.66415739  0.33238760  0.10665436    -0.01100
C1216       C  0.63371084  0.36573405  0.10260066     0.03900
C1217       C  0.59063070  0.38028573  0.17931541     0.38500
C1218       C  0.68421802  0.31324828  0.08083434     0.38500
C1219       C  0.62694314  0.38305316  0.07360561     0.37000
C1220       C  0.63922778  0.30469202  0.18329225     0.37000
N1221       N  0.62163084  0.39682306  0.05047481    -0.37900
N1222       N  0.63355963  0.28540231  0.20356924    -0.37900
N1223       N  0.69992050  0.29797272  0.06017791    -0.37300
N1224       N  0.57068063  0.39316265  0.19911463    -0.37300
C1225       C  0.87238036  0.12063305  0.13506578    -0.04000
C1226       C  0.88253867  0.15913645  0.13796620    -0.01100
C1227       C  0.85161416  0.19125411  0.14482409     0.03900
C1228       C  0.80998295  0.18630115  0.14415668    -0.04000
C1229       C  0.80199222  0.14737494  0.14978583    -0.01100
C1230       C  0.83192772  0.11470007  0.14268328     0.03900
C1231       C  0.92485090  0.16558626  0.13560701     0.38500
C1232       C  0.76658570  0.14097255  0.16762704     0.38500
C1233       C  0.82044404  0.07541903  0.14281043     0.37000
C1234       C  0.86288816  0.22567422  0.15878009     0.37000
N1235       N  0.81108665  0.04416299  0.14275907    -0.37900
N1236       N  0.87198522  0.25288806  0.17024227    -0.37900
N1237       N  0.73859277  0.13585915  0.18211907    -0.37300
N1238       N  0.95855978  0.17087339  0.13356329    -0.37300
C1239       C  0.83314248  0.34346555  0.11160449    -0.04000
C1240       C  0.83307837  0.36710829  0.13663053    -0.01100
C1241       C  0.86048876  0.39472927  0.13851504     0.03900
C1242       C  0.88840235  0.39971076  0.11497932    -0.04000
C1243       C  0.88744498  0.37633123  0.08948033    -0.01100
C1244       C  0.86059379  0.34788575  0.08823805     0.03900
C1245       C  0.80468307  0.36277781  0.16078430     0.38500
C1246       C  0.91250774  0.38233718  0.06375948     0.38500
C1247       C  0.86038021  0.32350867  0.06259355     0.37000
C1248       C  0.85952763  0.41750581  0.16514443     0.37000
N1249       N  0.86028702  0.30391588  0.04218090    -0.37900
N1250       N  0.85823460  0.43568896  0.18638823    -0.37900
N1251       N  0.93217969  0.38712236  0.04307236    -0.37300
N1252       N  0.78142634  0.35979472  0.17973484    -0.37300
C1253       C  0.64446656  0.17079459  0.93260530    -0.04000
C1254       C  0.62316096  0.15975775  0.95763205    -0.01100
C1255       C  0.59680640  0.13115592  0.95569365     0.03900
C1256       C  0.59047351  0.11447545  0.92824105    -0.04000
C1257       C  0.61101485  0.12691939  0.90294690    -0.01100
C1258       C  0.63857465  0.15423573  0.90534624     0.03900
C1259       C  0.62931995  0.17731014  0.98550078     0.38500
C1260       C  0.60319379  0.11265070  0.87421270     0.38500
C1261       C  0.66146950  0.16512670  0.87980687     0.37000
C1262       C  0.57790091  0.11772298  0.98225173     0.37000
N1263       N  0.68001942  0.17343585  0.85944655    -0.37900
N1264       N  0.56294917  0.10686065  0.00342738    -0.37900
N1265       N  0.59703684  0.10145518  0.85122958    -0.37300
N1266       N  0.63401856  0.19135253  0.00779194    -0.37300
C1267       C  0.87194750  0.12655133  0.91823619    -0.04000
C1268       C  0.84681734  0.13829535  0.94288922    -0.01100
C1269       C  0.81591413  0.17158637  0.94108986     0.03900
C1270       C  0.80814119  0.19207439  0.91394853    -0.04000
C1271       C  0.83865924  0.18458013  0.89150941    -0.01100
C1272       C  0.86836434  0.15032824  0.89268062     0.03900
C1273       C  0.85247542  0.11593342  0.97012518     0.38500
C1274       C  0.84372859  0.21470694  0.86968686     0.38500
C1275       C  0.89648078  0.14061783  0.86801169     0.37000
C1276       C  0.79537351  0.18677082  0.96796500     0.37000
N1277       N  0.91869584  0.13272860  0.84826164    -0.37900
N1278       N  0.77942245  0.19910013  0.98947497    -0.37900
N1279       N  0.84795371  0.23905946  0.85250300    -0.37300
N1280       N  0.85696094  0.09816943  0.99186158    -0.37300
C1281       C  0.67440265  0.32373547  0.91143370    -0.04000
C1282       C  0.67019300  0.34820634  0.93663726    -0.01100
C1283       C  0.64035657  0.38236862  0.93785467     0.03900
C1284       C  0.61261809  0.39113358  0.91499727    -0.04000
C1285       C  0.61285975  0.36399539  0.89208891    -0.01100
C1286       C  0.64169850  0.32900437  0.89161556     0.03900
C1287       C  0.69338368  0.33637879  0.96271103     0.38500
C1288       C  0.58214864  0.37100557  0.86976980     0.38500
C1289       C  0.63223246  0.29554792  0.87549207     0.37000
C1290       C  0.63785171  0.40836606  0.96287467     0.37000
N1291       N  0.62384738  0.26817582  0.86383177    -0.37900
N1292       N  0.63580778  0.42912517  0.98278891    -0.37900
N1293       N  0.55793592  0.37652260  0.85175097    -0.37300
N1294       N  0.71150938  0.32671732  0.98361296    -0.37300
C1295       C  0.89102225  0.40670022  0.92500442    -0.04000
C1296       C  0.90329302  0.37021218  0.91118527    -0.01100
C1297       C  0.87730243  0.34117466  0.91178286     0.03900
C1298       C  0.83861835  0.34829562  0.92661965    -0.04000
C1299       C  0.82757026  0.38453426  0.94176913    -0.01100
C1300       C  0.85330937  0.41384840  0.94041595     0.03900
C1301       C  0.94275460  0.36282695  0.89585444     0.38500
C1302       C  0.79045273  0.39141798  0.95976429     0.38500
C1303       C  0.84123746  0.45129041  0.95516627     0.37000
C1304       C  0.89127756  0.30443997  0.89681793     0.37000
N1305       N  0.83155703  0.48117063  0.96686804    -0.37900
N1306       N  0.90461645  0.27536653  0.88512740    -0.37900
N1307       N  0.76094115  0.39753243  0.97420936    -0.37300
N1308       N  0.97419498  0.35696308  0.88368629    -0.37300
C1309       C  0.49757641  0.01276881  0.80641674    -0.04000
C1310       C  0.49286773  0.47828153  0.79118827    -0.01100
C1311       C  0.49433357  0.47800054  0.76029772     0.03900
C1312       C  0.49978380  0.01250038  0.74414192    -0.04000
C1313       C  0.50340415  0.04743594  0.75948772    -0.01100
C1314       C  0.50304655  0.04733057  0.79045883     0.03900
C1315       C  0.48691467  0.44269302  0.80736794     0.38500
C1316       C  0.00762306  0.08358938  0.74352606     0.38500
C1317       C  0.00753330  0.08307412  0.80593600     0.37000
C1318       C  0.48928770  0.44213168  0.74527505     0.37000
N1319       N  0.01115269  0.11163375  0.81821226    -0.37900
N1320       N  0.48578221  0.41308076  0.73362232    -0.37900
N1321       N  0.01030305  0.11276527  0.73096242    -0.37300
N1322       N  0.48190167  0.41429308  0.82014435    -0.37300
C1323       C  0.74301921  0.25101742  0.73763189    -0.04000
C1324       C  0.70885081  0.27117252  0.75311188    -0.01100
C1325       C  0.70608545  0.26860804  0.78401237     0.03900
C1326       C  0.73895044  0.24789041  0.80061525    -0.04000
C1327       C  0.77316344  0.22713656  0.78443880    -0.01100
C1328       C  0.77476440  0.22858413  0.75345348     0.03900
C1329       C  0.67654585  0.29582948  0.73730678     0.38500
C1330       C  0.80728429  0.20300623  0.79839527     0.38500
C1331       C  0.80913494  0.20575678  0.73769400     0.37000
C1332       C  0.66782671  0.28643170  0.79771133     0.37000
N1333       N  0.83649629  0.18771325  0.72514428    -0.37900
N1334       N  0.63661635  0.30178827  0.80702176    -0.37900
N1335       N  0.83506705  0.18216996  0.80767663    -0.37300
N1336       N  0.65067859  0.31559280  0.72499022    -0.37300
C1337       C  0.93531997  0.07135321  0.63072982    -0.04000
C1338       C  0.90124439  0.07605361  0.65075605    -0.01100
C1339       C  0.87042294  0.10945876  0.64881090     0.03900
C1340       C  0.87168234  0.13722826  0.62589361    -0.04000
C1341       C  0.90170130  0.12977461  0.60353008    -0.01100
C1342       C  0.93188830  0.09589840  0.60501242     0.03900
C1343       C  0.89484696  0.04503150  0.67151881     0.38500
C1344       C  0.90155544  0.15716097  0.57889552     0.38500
C1345       C  0.95603563  0.08476794  0.57860789     0.37000
C1346       C  0.83600127  0.11417969  0.66953861     0.37000
N1347       N  0.97495939  0.07623078  0.55736498    -0.37900
N1348       N  0.80840770  0.11771836  0.68590211    -0.37900
N1349       N  0.90147325  0.17913275  0.55937480    -0.37300
N1350       N  0.88876710  0.02068609  0.68819475    -0.37300
C1351       C  0.63364911  0.37386005  0.62882568    -0.04000
C1352       C  0.63346960  0.40018307  0.65218173    -0.01100
C1353       C  0.60386811  0.43459500  0.65373173     0.03900
C1354       C  0.57135019  0.44076498  0.63359132    -0.04000
C1355       C  0.57600775  0.41711672  0.60781300    -0.01100
C1356       C  0.60587307  0.38303688  0.60614725     0.03900
C1357       C  0.66510160  0.39275210  0.67393252     0.38500
C1358       C  0.55268963  0.42903921  0.58178505     0.38500
C1359       C  0.60834026  0.35739817  0.58089888     0.37000
C1360       C  0.61148096  0.46572233  0.67300194     0.37000
N1361       N  0.61039111  0.33682306  0.56087396    -0.37900
N1362       N  0.61887667  0.49009061  0.68839666    -0.37900
N1363       N  0.03438724  0.43831192  0.56089167    -0.37300
N1364       N  0.69034078  0.38689548  0.69123419    -0.37300
C1365       C  0.85503417  0.35741305  0.62417982    -0.04000
C1366       C  0.87007471  0.37042353  0.59703810    -0.01100
C1367       C  0.89702100  0.39856770  0.59631880     0.03900
C1368       C  0.90827144  0.41456056  0.62246003    -0.04000
C1369       C  0.89302368  0.40216960  0.64948846    -0.01100
C1370       C  0.86683743  0.37327579  0.65048743     0.03900
C1371       C  0.85862558  0.35418080  0.56986824     0.38500
C1372       C  0.90407459  0.41961388  0.67619005     0.38500
C1373       C  0.85126206  0.36083840  0.67853524     0.37000
C1374       C  0.91381206  0.41098579  0.56875869     0.37000
N1375       N  0.83902670  0.35095193  0.70097174    -0.37900
N1376       N  0.92738885  0.42093043  0.54679847    -0.37900
N1377       N  0.91244377  0.43361010  0.69764476    -0.37300
N1378       N  0.84904744  0.34116817  0.54835149    -0.37300
C1379       C  0.60081604  0.09377698  0.61434238    -0.04000
C1380       C  0.61496603  0.10911359  0.58796647    -0.01100
C1381       C  0.64242844  0.13682270  0.58837509     0.03900
C1382       C  0.65562779  0.14937803  0.61543388    -0.04000
C1383       C  0.64232920  0.13268061  0.64186476    -0.01100
C1384       C  0.61456010  0.10536985  0.64123852     0.03900
C1385       C  0.60031467  0.09674981  0.56050727     0.38500
C1386       C  0.65821105  0.14249721  0.66968841     0.38500
C1387       C  0.59921216  0.08972664  0.66824596     0.37000
C1388       C  0.65600833  0.15309443  0.56099032     0.37000
N1389       N  0.58676289  0.07758003  0.68987606    -0.37900
N1390       N  0.66693703  0.16590867  0.53910750    -0.37900
N1391       N  0.67108620  0.15018580  0.69182890    -0.37300
N1392       N  0.58846418  0.08684908  0.53863616    -0.37300
O1393       O  0.69694744  0.84175996  0.60980411    -0.77100
C1394       C  0.82625208  0.82815391  0.62480253     0.83900
O1395       O  0.76225909  0.73081589  0.55054570    -0.78200
O1396       O  0.83703564  0.69861959  0.64338207    -0.79700
O1397       O  0.71336157  0.75055952  0.69041934    -0.79500
O1398       O  0.66211769  0.80807198  0.64121335    -0.78100
Zn1399     Zn  0.74875612  0.80560869  0.59908073     1.55700
O1400       O  0.77957298  0.75516620  0.69220504    -0.79500
Cd1401     Cd  0.70161911  0.75562365  0.64610462     1.59700
Cd1402     Cd  0.76068545  0.71144423  0.59393728     1.59600
O1403       O  0.67363025  0.70830926  0.63469511    -0.79500
O1404       O  0.75248792  0.75678844  0.62167379    -1.90000
Cd1405     Cd  0.79933286  0.75231976  0.64893099     1.59900
O1406       O  0.71395198  0.67781607  0.59937267    -0.79500
O1407       O  0.83286581  0.79794645  0.64166279    -0.78100
C1408       C  0.75685008  0.76557922  0.53930990     0.84400
C1409       C  0.66595086  0.83918358  0.62642465     0.84000
O1410       O  0.79556967  0.83402343  0.60815220    -0.77100
C1411       C  0.74535554  0.75250502  0.70493957     0.84900
O1412       O  0.75053582  0.79633171  0.55521139    -0.77200
C1413       C  0.68252991  0.68031844  0.61641076     0.85000
C1414       C  0.83925021  0.67203202  0.62392143     0.85300
O1415       O  0.81413925  0.67387564  0.60306803    -0.79600
C1416       C  0.53532722  0.97535549  0.63654710     0.31400
C1417       C  0.97197234  0.53753592  0.63450494     0.31400
C1418       C  0.99505207  0.96652525  0.62417164    -0.04800
C1419       C  0.51963134  0.99301053  0.66659810    -0.05600
C1420       C  0.54412479  0.51178464  0.61902608    -0.05500
C1421       C  0.96313799  0.99820678  0.62231894    -0.04800
C1422       C  0.98820435  0.52556267  0.66545824    -0.05600
C1423       C  0.51221760  0.54391947  0.61872322    -0.05500
C1424       C  0.92737978  0.98206865  0.62068932    -0.30900
N1425       N  0.93686009  0.94215120  0.62150632     0.15600
C1426       C  0.97765338  0.93237095  0.62466331    -0.30900
H1427       H  0.99316463  0.90271473  0.62909191     0.17600
C1428       C  0.97934986  0.53749148  0.69397412    -0.29900
N1429       N  0.50207121  0.51188671  0.71238766     0.14400
C1430       C  0.52612227  0.98436608  0.69587722    -0.29800
C1431       C  0.53062303  0.57757098  0.61671317    -0.30100
N1432       N  0.57153462  0.56696431  0.61377305     0.14900
H1433       H  0.51559279  0.60764650  0.62004818     0.17500
C1434       C  0.58028115  0.52719537  0.61601455    -0.30100
H1435       H  0.61083332  0.51106270  0.61871615     0.17500
H1436       H  0.54640370  0.95942707  0.70473737     0.17500
H1437       H  0.89645583  0.99805468  0.62139651     0.17600
H1438       H  0.95710608  0.56233702  0.70099565     0.17500
O1439       O  0.53017041  0.58725102  0.94171432    -0.77100
C1440       C  0.90465719  0.59185308  0.91997216     0.83900
O1441       O  0.49832097  0.97298705  0.99184483    -0.78200
O1442       O  0.91234032  0.96550327  0.90634469    -0.79700
O1443       O  0.52853359  0.51592501  0.85270326    -0.79500
O1444       O  0.57271149  0.55530266  0.90841527    -0.78100
Zn1445     Zn  0.48435389  0.55517738  0.94846752     1.55700
O1446       O  0.96268830  0.50847546  0.85227658    -0.79500
Cd1447     Cd  0.54245582  0.50940277  0.89688405     1.59700
Cd1448     Cd  0.49786450  0.96094128  0.94744888     1.59600
O1449       O  0.58115835  0.95575129  0.90108890    -0.79500
O1450       O  0.49225613  0.50989380  0.92253832    -1.90000
Cd1451     Cd  0.94454391  0.51153381  0.89623233     1.59900
O1452       O  0.55066775  0.92339067  0.93605096    -0.79500
O1453       O  0.90544844  0.56425046  0.90148199    -0.78100
C1454       C  0.49111143  0.50570286  0.00540607     0.84400
C1455       C  0.56292960  0.58400301  0.92601171     0.84000
O1456       O  0.93173071  0.59111085  0.93941345    -0.77100
C1457       C  0.49617133  0.51262994  0.83895981     0.84900
O1458       O  0.48417062  0.53875325  0.99165780    -0.77200
C1459       C  0.57963383  0.92543800  0.91743083     0.85000
C1460       C  0.91888459  0.93642259  0.92426992     0.85300
O1461       O  0.94953572  0.93096098  0.94094395    -0.79600
C1462       C  0.77150482  0.72565997  0.91088819     0.31400
C1463       C  0.70966533  0.78864852  0.90894734     0.31400
C1464       C  0.78184495  0.76529571  0.92147871    -0.04800
C1465       C  0.75282158  0.73609890  0.88023041    -0.05600
C1466       C  0.73266975  0.72065539  0.92870487    -0.05500
C1467       C  0.75089344  0.79724915  0.91948496    -0.04800
C1468       C  0.72336317  0.76970095  0.87906858    -0.05600
C1469       C  0.70094450  0.75305469  0.92804436    -0.05500
C1470       C  0.76908488  0.83077903  0.91999447    -0.30900
N1471       N  0.80963875  0.82048897  0.92513886     0.15600
C1472       C  0.81767105  0.78018576  0.92599853    -0.30900
H1473       H  0.84750993  0.76265150  0.92842840     0.17600
C1474       C  0.71783376  0.77894531  0.84980701    -0.29900
N1475       N  0.73778979  0.74901160  0.83286936     0.14400
C1476       C  0.75786042  0.72199786  0.85197868    -0.29800
C1477       C  0.66481970  0.73753099  0.93186262    -0.30100
N1478       N  0.67349728  0.69776578  0.93503807     0.14900
H1479       H  0.63429794  0.75338648  0.92862207     0.17500
C1480       C  0.71443860  0.68717235  0.93230262    -0.30100
H1481       H  0.72947590  0.65704207  0.92912055     0.17500
H1482       H  0.77473193  0.69347247  0.84645083     0.17500
H1483       H  0.75404483  0.86055854  0.91530422     0.17600
H1484       H  0.70189472  0.80682989  0.84184834     0.17500
O1485       O  0.95061526  0.92491927  0.10097552    -0.77100
C1486       C  0.99094252  0.50529639  0.03776715     0.83900
O1487       O  0.57993285  0.94788444  0.13943698    -0.78200
O1488       O  0.53449287  0.58134100  0.09961119    -0.79700
O1489       O  0.90543353  0.55490293  0.14426163    -0.79500
O1490       O  0.91115036  0.95690257  0.13558282    -0.78100
Zn1491     Zn  0.99853762  0.95538097  0.09465166     1.55700
O1492       O  0.93241056  0.58940909  0.10903137    -0.79500
Cd1493     Cd  0.94364433  0.50139126  0.14723584     1.59700
Cd1494     Cd  0.54117405  0.50058226  0.14467741     1.59600
O1495       O  0.95967363  0.49636830  0.19141632    -0.79500
O1496       O  0.99207296  0.50158895  0.11999712    -1.90000
Cd1497     Cd  0.98486865  0.55129469  0.09542821     1.59900
O1498       O  0.52533567  0.50360204  0.18885263    -0.79500
O1499       O  0.98257781  0.53804945  0.05127771    -0.78100
C1500       C  0.57892105  0.91832462  0.12302465     0.84400
C1501       C  0.91828637  0.92879167  0.11721593     0.84000
O1502       O  0.99921242  0.97227168  0.05148759    -0.77100
C1503       C  0.90503529  0.58629919  0.12882648     0.84900
O1504       O  0.55062058  0.91773756  0.10459262    -0.77200
C1505       C  0.99291135  0.50046916  0.20386080     0.85000
C1506       C  0.56572626  0.57602954  0.11581099     0.85300
O1507       O  0.57246597  0.54714711  0.13391027    -0.79600
C1508       C  0.71031421  0.78334984  0.13977263     0.31400
C1509       C  0.77477710  0.72166871  0.14129462     0.31400
C1510       C  0.74892074  0.78948694  0.12193479    -0.04800
C1511       C  0.72909139  0.77277728  0.17027135    -0.05600
C1512       C  0.70180205  0.74354535  0.12875142    -0.05500
C1513       C  0.78189931  0.75817562  0.12187251    -0.04800
C1514       C  0.76093587  0.74075262  0.17075550    -0.05600
C1515       C  0.73411109  0.71236585  0.12881867    -0.05500
C1516       C  0.81598419  0.77522289  0.11321721    -0.30900
N1517       N  0.80516336  0.81497712  0.11018672     0.15600
C1518       C  0.76433451  0.82371790  0.11519379    -0.30900
H1519       H  0.74783050  0.85344348  0.11759731     0.17600
C1520       C  0.77473931  0.73591884  0.19894283    -0.29900
N1521       N  0.75343163  0.76482056  0.21555315     0.14400
C1522       C  0.72662779  0.78818832  0.19829799    -0.29800
C1523       C  0.71834651  0.67970118  0.11902855    -0.30100
N1524       N  0.67742809  0.68978789  0.11529599     0.14900
H1525       H  0.73453089  0.64992944  0.11665075     0.17500
C1526       C  0.66733862  0.72910620  0.12036769    -0.30100
H1527       H  0.63651397  0.74534625  0.12024341     0.17500
H1528       H  0.70732355  0.81472383  0.20582677     0.17500
H1529       H  0.84729945  0.76070587  0.11156556     0.17600
H1530       H  0.79859099  0.71322563  0.20682102     0.17500
C1531       C  0.97901436  0.56117486  0.40339155     0.31400
C1532       C  0.54076120  0.99755800  0.40435731     0.31400
C1533       C  0.96834994  0.52341354  0.41863605    -0.04800
C1534       C  0.99424114  0.54452644  0.37293475    -0.05600
C1535       C  0.51851908  0.56759971  0.41772593    -0.05500
C1536       C  0.99978394  0.99093111  0.41880737    -0.04800
C1537       C  0.52583925  0.51165438  0.37348394    -0.05600
C1538       C  0.54966879  0.53555506  0.41841805    -0.05500
C1539       C  0.98118939  0.95751473  0.42043241    -0.30900
N1540       N  0.94010232  0.96833120  0.42270557     0.15600
C1541       C  0.93190120  0.00838338  0.42072862    -0.30900
H1542       H  0.90164106  0.52529072  0.41888083     0.17600
C1543       C  0.52452812  0.99260093  0.34707417    -0.29900
N1544       N  0.99621014  0.51389136  0.32998165     0.14400
C1545       C  0.97608633  0.54418189  0.34594369    -0.29800
C1546       C  0.58549396  0.55042637  0.42291940    -0.30100
N1547       N  0.57670813  0.59039758  0.42514397     0.14900
H1548       H  0.61609129  0.53371651  0.42211801     0.17500
C1549       C  0.53602705  0.60112870  0.42140084    -0.30100
H1550       H  0.52092011  0.63136411  0.41877167     0.17500
H1551       H  0.94946723  0.56388907  0.33851912     0.17500
H1552       H  0.99643190  0.92730647  0.41772151     0.17600
H1553       H  0.54214295  0.96456880  0.34074143     0.17500
O1554       O  0.72020631  0.69767152  0.44117208    -0.77100
C1555       C  0.84894534  0.69840226  0.41849174     0.83900
O1556       O  0.75046636  0.80490869  0.49570703    -0.78200
O1557       O  0.83276275  0.82970409  0.40538319    -0.79700
O1558       O  0.72456237  0.77635230  0.35618181    -0.79500
O1559       O  0.67828311  0.73405179  0.41027408    -0.78100
Zn1560     Zn  0.76607299  0.72865046  0.44781514     1.55700
O1561       O  0.79140653  0.77799270  0.35416228    -0.79500
Cd1562     Cd  0.70942775  0.78023214  0.40027641     1.59700
Cd1563     Cd  0.75138775  0.82403608  0.45203673     1.59600
O1564       O  0.67114113  0.83295174  0.40584223    -0.79500
O1565       O  0.75852745  0.77767277  0.42505641    -1.90000
Cd1566     Cd  0.80657732  0.77975984  0.39794346     1.59900
O1567       O  0.69776906  0.86247892  0.44241765    -0.79500
O1568       O  0.84996383  0.73049419  0.40418321    -0.78100
C1569       C  0.75774579  0.77025224  0.50711853     0.84400
C1570       C  0.68777731  0.70345678  0.42631069     0.84000
O1571       O  0.81867961  0.69394156  0.43542643    -0.77100
C1572       C  0.75789016  0.77591425  0.34151187     0.84900
O1573       O  0.76552919  0.73935101  0.49141321    -0.77200
C1574       C  0.67075795  0.86198895  0.42298484     0.85000
C1575       C  0.82753111  0.85556511  0.42546924     0.85300
O1576       O  0.79964734  0.85620277  0.44540311    -0.79600
C1577       C  0.66054499  0.67328696  0.42710743    -0.04000
C1578       C  0.62825816  0.67543986  0.44800773    -0.01100
C1579       C  0.60104839  0.64751401  0.44773445     0.03900
C1580       C  0.60580962  0.61765635  0.42631295    -0.04000
C1581       C  0.63802875  0.61602248  0.40522226    -0.01100
C1582       C  0.66578319  0.64329728  0.40598137     0.03900
C1583       C  0.62287144  0.70674208  0.46948627     0.38500
C1584       C  0.64124065  0.58802897  0.38155046     0.38500
C1585       C  0.69957192  0.64077395  0.38480468     0.37000
C1586       C  0.56800310  0.64959876  0.46938455     0.37000
N1587       N  0.72661628  0.63854302  0.36801078    -0.37900
N1588       N  0.54148407  0.65156192  0.48659389    -0.37900
N1589       N  0.64420080  0.56612427  0.36231809    -0.37300
N1590       N  0.61875988  0.73187090  0.48648201    -0.37300
C1591       C  0.57648984  0.96317700  0.40909355    -0.04000
C1592       C  0.60663764  0.95074103  0.38703749    -0.01100
C1593       C  0.63570546  0.91644657  0.39126918     0.03900
C1594       C  0.63894035  0.89714779  0.41879951    -0.04000
C1595       C  0.61326701  0.91270070  0.44218638    -0.01100
C1596       C  0.58250429  0.94558571  0.43755288     0.03900
C1597       C  0.61222208  0.97526036  0.36158971     0.38500
C1598       C  0.61793163  0.89438300  0.47101797     0.38500
C1599       C  0.55849019  0.96214950  0.46275117     0.37000
C1600       C  0.66368839  0.90193440  0.36740968     0.37000
N1601       N  0.03946392  0.97527802  0.48288842    -0.37900
N1602       N  0.68580610  0.89016758  0.34838763    -0.37900
N1603       N  0.62159586  0.87996056  0.49405888    -0.37300
N1604       N  0.61765979  0.49395006  0.34094865    -0.36100
C1605       C  0.94623194  0.59833554  0.40709120    -0.04000
C1606       C  0.93822901  0.62753199  0.38475428    -0.01100
C1607       C  0.90502468  0.65861040  0.38776721     0.03900
C1608       C  0.88364237  0.66510641  0.41495283    -0.04000
C1609       C  0.89663660  0.64032783  0.43900167    -0.01100
C1610       C  0.92769442  0.60740834  0.43520985     0.03900
C1611       C  0.96765261  0.63027312  0.36104174     0.38500
C1612       C  0.87953870  0.64965365  0.46813160     0.38500
C1613       C  0.94271758  0.58505074  0.46106300     0.37000
C1614       C  0.89287523  0.68341546  0.36243857     0.37000
N1615       N  0.95490246  0.56762954  0.48175358    -0.37900
N1616       N  0.88310558  0.70298744  0.34217453    -0.37900
N1617       N  0.86610572  0.65713668  0.49136784    -0.37300
N1618       N  0.99126540  0.63350109  0.34235725    -0.37300
C1619       C  0.91057206  0.94128222  0.42397304    -0.04000
C1620       C  0.88026941  0.94287417  0.40256522    -0.01100
C1621       C  0.85286895  0.91500557  0.40320367     0.03900
C1622       C  0.85514128  0.88580217  0.42553157    -0.04000
C1623       C  0.88510319  0.88441471  0.44709436    -0.01100
C1624       C  0.91282965  0.91193484  0.44623006     0.03900
C1625       C  0.87806218  0.97242973  0.37936009     0.38500
C1626       C  0.88854888  0.85354666  0.46941751     0.38500
C1627       C  0.94388191  0.91012260  0.46822645     0.37000
C1628       C  0.82237154  0.91623750  0.38080340     0.37000
N1629       N  0.96901599  0.90857309  0.48555025    -0.37900
N1630       N  0.79809662  0.91710973  0.36291201    -0.37900
N1631       N  0.89147163  0.82869119  0.48704813    -0.37300
N1632       N  0.87617243  0.49629528  0.36105437    -0.37300
C1633       C  0.75747149  0.77255477  0.30884994    -0.04000
C1634       C  0.78374366  0.79202583  0.29059585    -0.01100
C1635       C  0.78311429  0.78858982  0.25982844     0.03900
C1636       C  0.75527610  0.76723247  0.24691409    -0.04000
C1637       C  0.72936616  0.74757581  0.26479470    -0.01100
C1638       C  0.73070057  0.74966246  0.29556693     0.03900
C1639       C  0.81052207  0.81681090  0.30318168     0.38500
C1640       C  0.70174607  0.72456048  0.25125136     0.38500
C1641       C  0.70523977  0.72709095  0.31330691     0.37000
C1642       C  0.81169098  0.80639676  0.24136890     0.37000
N1643       N  0.68481563  0.70907188  0.32732317    -0.37900
N1644       N  0.83517903  0.82030480  0.22699033    -0.37900
N1645       N  0.67974050  0.70610644  0.24047995    -0.37300
N1646       N  0.83177970  0.83667876  0.31323254    -0.37300
C1647       C  0.99470448  0.51027513  0.29864425    -0.04000
C1648       C  0.97225449  0.48340333  0.28602158    -0.01100
C1649       C  0.97181838  0.47963543  0.25518257     0.03900
C1650       C  0.99394598  0.50303962  0.23665705    -0.04000
C1651       C  0.51751948  0.52916043  0.24980444    -0.01100
C1652       C  0.51794106  0.53244872  0.28052167     0.03900
C1653       C  0.95069028  0.45885511  0.30500077     0.38500
C1654       C  0.54159783  0.55298294  0.23201648     0.38500
C1655       C  0.54350290  0.55782241  0.29381548     0.37000
C1656       C  0.95053925  0.44997950  0.24281468     0.37000
N1657       N  0.56423040  0.57776740  0.30438866    -0.37900
N1658       N  0.93382240  0.42597059  0.23312065    -0.37900
N1659       N  0.56137060  0.57168197  0.21804296    -0.37300
N1660       N  0.93377889  0.43892898  0.32014481    -0.37300
C1661       C  0.59408631  0.60560974  0.11478384    -0.04000
C1662       C  0.59089838  0.63438990  0.13677084    -0.01100
C1663       C  0.61887203  0.66149340  0.13716907     0.03900
C1664       C  0.64872971  0.66190501  0.11447783    -0.04000
C1665       C  0.65153597  0.63342499  0.09215935    -0.01100
C1666       C  0.62471105  0.60488175  0.09258108     0.03900
C1667       C  0.55841922  0.63647094  0.15893431     0.38500
C1668       C  0.68195321  0.63366346  0.06879926     0.38500
C1669       C  0.62925103  0.57417395  0.07069717     0.37000
C1670       C  0.61836602  0.68733777  0.16201430     0.37000
N1671       N  0.63309785  0.54942332  0.05340469    -0.37900
N1672       N  0.61792008  0.70756517  0.18209649    -0.37900
N1673       N  0.70625867  0.63384169  0.05013085    -0.37300
N1674       N  0.53229685  0.63868517  0.17645725    -0.37300
C1675       C  0.61067356  0.88289213  0.12674115    -0.04000
C1676       C  0.61601658  0.86447128  0.15451632    -0.01100
C1677       C  0.64471398  0.82973855  0.15815215     0.03900
C1678       C  0.67318023  0.81654024  0.13530648    -0.04000
C1679       C  0.66417483  0.83239912  0.10666141    -0.01100
C1680       C  0.63373087  0.86574852  0.10260788     0.03900
C1681       C  0.59066568  0.88031352  0.17932618     0.38500
C1682       C  0.68423441  0.81325941  0.08084120     0.38500
C1683       C  0.62696509  0.88306910  0.07361290     0.37000
C1684       C  0.63923404  0.80470295  0.18329567     0.37000
N1685       N  0.62165398  0.89684086  0.05048284    -0.37900
N1686       N  0.63355828  0.78541161  0.20356964    -0.37900
N1687       N  0.69993612  0.79798504  0.06018436    -0.37300
N1688       N  0.57072730  0.89319744  0.19912749    -0.37300
C1689       C  0.87238649  0.62063319  0.13506954    -0.04000
C1690       C  0.88254257  0.65913439  0.13798506    -0.01100
C1691       C  0.85161593  0.69124771  0.14484994     0.03900
C1692       C  0.80998483  0.68629351  0.14417695    -0.04000
C1693       C  0.80199602  0.64736391  0.14979056    -0.01100
C1694       C  0.83193218  0.61469465  0.14267685     0.03900
C1695       C  0.92485497  0.66558636  0.13563018     0.38500
C1696       C  0.76659891  0.64094915  0.16763751     0.38500
C1697       C  0.82044796  0.57541510  0.14277961     0.37000
C1698       C  0.86288618  0.72566581  0.15881036     0.37000
N1699       N  0.81109077  0.54415884  0.14270688    -0.37900
N1700       N  0.87198057  0.75287907  0.17027577    -0.37900
N1701       N  0.73861514  0.63582448  0.18213485    -0.37300
N1702       N  0.95856310  0.67087435  0.13358933    -0.37300
C1703       C  0.83317114  0.84343460  0.11161089    -0.04000
C1704       C  0.83310583  0.86708098  0.13663480    -0.01100
C1705       C  0.86051768  0.89470095  0.13851871     0.03900
C1706       C  0.88843025  0.89968265  0.11498220    -0.04000
C1707       C  0.88748090  0.87629299  0.08948729    -0.01100
C1708       C  0.86063091  0.84784535  0.08824755     0.03900
C1709       C  0.80470824  0.86275442  0.16078780     0.38500
C1710       C  0.91255255  0.88228741  0.06376928     0.38500
C1711       C  0.86042984  0.82345372  0.06260927     0.37000
C1712       C  0.85956284  0.91747239  0.16514976     0.37000
N1713       N  0.86034758  0.80384815  0.04220303    -0.37900
N1714       N  0.85827617  0.93565056  0.18639595    -0.37900
N1715       N  0.93223254  0.88706241  0.04308337    -0.37300
N1716       N  0.78144943  0.85977399  0.17973758    -0.37300
C1717       C  0.64446255  0.67080617  0.93265049    -0.04000
C1718       C  0.62315626  0.65976093  0.95767405    -0.01100
C1719       C  0.59680116  0.63116002  0.95572875     0.03900
C1720       C  0.59046731  0.61449277  0.92827110    -0.04000
C1721       C  0.61100383  0.62695038  0.90298003    -0.01100
C1722       C  0.63856614  0.65426249  0.90538645     0.03900
C1723       C  0.62930932  0.67730804  0.98554614     0.38500
C1724       C  0.60317358  0.61270254  0.87424156     0.38500
C1725       C  0.66145655  0.66516535  0.87984943     0.37000
C1726       C  0.57789573  0.61771680  0.98228235     0.37000
N1727       N  0.68000214  0.67348334  0.85948881    -0.37900
N1728       N  0.56294299  0.60684600  0.00345623    -0.37900
N1729       N  0.59700856  0.60152452  0.85125435    -0.37300
N1730       N  0.63400113  0.69134752  0.00783945    -0.37300
C1731       C  0.87194400  0.62654866  0.91824193    -0.04000
C1732       C  0.84682802  0.63830331  0.94290018    -0.01100
C1733       C  0.81592104  0.67159170  0.94110128     0.03900
C1734       C  0.80813357  0.69206756  0.91395691    -0.04000
C1735       C  0.83864451  0.68457092  0.89151346    -0.01100
C1736       C  0.86834916  0.65031870  0.89268301     0.03900
C1737       C  0.85250740  0.61595871  0.97014259     0.38500
C1738       C  0.84371075  0.71469812  0.86969061     0.38500
C1739       C  0.89645656  0.64060340  0.86800945     0.37000
C1740       C  0.79539779  0.68679035  0.96797801     0.37000
N1741       N  0.91866504  0.63270897  0.84825695    -0.37900
N1742       N  0.77946113  0.69913255  0.98948993    -0.37900
N1743       N  0.84793563  0.73905222  0.85250738    -0.37300
N1744       N  0.85701083  0.59821062  0.99188451    -0.37300
C1745       C  0.67439081  0.82372277  0.91142810    -0.04000
C1746       C  0.67018858  0.84820189  0.93662700    -0.01100
C1747       C  0.64035085  0.88236272  0.93784377     0.03900
C1748       C  0.61260223  0.89111715  0.91499189    -0.04000
C1749       C  0.61283938  0.86397399  0.89208715    -0.01100
C1750       C  0.64168127  0.82898486  0.89161417     0.03900
C1751       C  0.69339000  0.83638454  0.96269767     0.38500
C1752       C  0.58212434  0.87097825  0.86977136     0.38500
C1753       C  0.63221284  0.79552492  0.87549567     0.37000
C1754       C  0.63785687  0.90837089  0.96285688     0.37000
N1755       N  0.62382475  0.76815243  0.86383771    -0.37900
N1756       N  0.63582207  0.92913942  0.98276539    -0.37900
N1757       N  0.55790802  0.87649040  0.85175334    -0.37300
N1758       N  0.71152528  0.82673037  0.98359672    -0.37300
C1759       C  0.89100333  0.90670073  0.92501872    -0.04000
C1760       C  0.90328815  0.87020409  0.91121475    -0.01100
C1761       C  0.87729705  0.84116720  0.91180642     0.03900
C1762       C  0.83860205  0.84829524  0.92662737    -0.04000
C1763       C  0.82753859  0.88454315  0.94176273    -0.01100
C1764       C  0.85327329  0.91386131  0.94040733     0.03900
C1765       C  0.94275932  0.86281399  0.89589716     0.38500
C1766       C  0.79040954  0.89143623  0.95974444     0.38500
C1767       C  0.84117365  0.95132221  0.95512577     0.37000
C1768       C  0.89127854  0.80442992  0.89684587     0.37000
N1769       N  0.83146686  0.98122008  0.96680012    -0.37900
N1770       N  0.90461553  0.77535340  0.88515820    -0.37900
N1771       N  0.76088856  0.89756069  0.97417950    -0.37300
N1772       N  0.97420653  0.85694863  0.88373851    -0.37300
C1773       C  0.49760674  0.51279606  0.80640872    -0.04000
C1774       C  0.49283354  0.97825403  0.79119831    -0.01100
C1775       C  0.49429711  0.97797242  0.76030791     0.03900
C1776       C  0.49981819  0.51252992  0.74413208    -0.04000
C1777       C  0.50343352  0.54746539  0.75947920    -0.01100
C1778       C  0.50307444  0.54735915  0.79045092     0.03900
C1779       C  0.48688059  0.94266724  0.80737990     0.38500
C1780       C  0.00764610  0.58362103  0.74351836     0.38500
C1781       C  0.00755548  0.58310368  0.80592874     0.37000
C1782       C  0.48924820  0.94210364  0.74528634     0.37000
N1783       N  0.01116950  0.61166536  0.81820482    -0.37900
N1784       N  0.48573949  0.91305187  0.73363594    -0.37900
N1785       N  0.01032066  0.61279901  0.73095577    -0.37300
N1786       N  0.48186789  0.91426892  0.82015962    -0.37300
C1787       C  0.74301205  0.75098669  0.73763896    -0.04000
C1788       C  0.70884720  0.77115021  0.75311795    -0.01100
C1789       C  0.70607508  0.76857850  0.78401781     0.03900
C1790       C  0.73893399  0.74785064  0.80062201    -0.04000
C1791       C  0.77314413  0.72709014  0.78444637    -0.01100
C1792       C  0.77474607  0.72853759  0.75346086     0.03900
C1793       C  0.67655374  0.79582239  0.73731301     0.38500
C1794       C  0.80726313  0.70296004  0.79840436     0.38500
C1795       C  0.80910635  0.70569399  0.73770109     0.37000
C1796       C  0.66781696  0.78640837  0.79771437     0.37000
N1797       N  0.83645849  0.68763708  0.72515159    -0.37900
N1798       N  0.63660809  0.80177098  0.80702400    -0.37900
N1799       N  0.83504662  0.68212646  0.80768867    -0.37300
N1800       N  0.65069483  0.81559819  0.72499639    -0.37300
C1801       C  0.93533166  0.57136083  0.63072188    -0.04000
C1802       C  0.90125647  0.57605406  0.65074840    -0.01100
C1803       C  0.87042990  0.60945422  0.64880433     0.03900
C1804       C  0.87168693  0.63722972  0.62589125    -0.04000
C1805       C  0.90171030  0.62978849  0.60352976    -0.01100
C1806       C  0.93190046  0.59591433  0.60500813     0.03900
C1807       C  0.89487009  0.54503109  0.67151407     0.38500
C1808       C  0.90156644  0.65718551  0.57890237     0.38500
C1809       C  0.95605020  0.58479700  0.57860283     0.37000
C1810       C  0.83600563  0.61416520  0.66953070     0.37000
N1811       N  0.97497705  0.57627234  0.55735826    -0.37900
N1812       N  0.80841168  0.61769503  0.68589213    -0.37900
N1813       N  0.90148626  0.67916705  0.55938698    -0.37300
N1814       N  0.88880224  0.52068380  0.68819163    -0.37300
C1815       C  0.63365445  0.87386585  0.62883205    -0.04000
C1816       C  0.63345992  0.90017680  0.65219734    -0.01100
C1817       C  0.60385699  0.93458739  0.65374866     0.03900
C1818       C  0.57134933  0.94076603  0.63360026    -0.04000
C1819       C  0.57601995  0.91712918  0.60781619    -0.01100
C1820       C  0.60588902  0.88305258  0.60614807     0.03900
C1821       C  0.66507790  0.89273447  0.67395778     0.38500
C1822       C  0.55270778  0.92905917  0.58178652     0.38500
C1823       C  0.60836797  0.85742436  0.58089287     0.37000
C1824       C  0.61145868  0.96570563  0.67303101     0.37000
N1825       N  0.61042713  0.83685807  0.56086309    -0.37900
N1826       N  0.61884539  0.99006551  0.68843686    -0.37900
N1827       N  0.03440947  0.93833803  0.56089203    -0.37300
N1828       N  0.69030542  0.88686881  0.69126730    -0.37300
C1829       C  0.85505127  0.85739404  0.62418761    -0.04000
C1830       C  0.87010821  0.87038516  0.59704505    -0.01100
C1831       C  0.89705879  0.89852515  0.59632364     0.03900
C1832       C  0.90828597  0.91454290  0.62246194    -0.04000
C1833       C  0.89302588  0.90216687  0.64949067    -0.01100
C1834       C  0.86684415  0.87326968  0.65049324     0.03900
C1835       C  0.85867040  0.85412797  0.56987780     0.38500
C1836       C  0.90406560  0.91962563  0.67619031     0.38500
C1837       C  0.85126551  0.86083923  0.67854189     0.37000
C1838       C  0.91388404  0.91090842  0.56876438     0.37000
N1839       N  0.83902919  0.85095672  0.70097939    -0.37900
N1840       N  0.92749179  0.92082086  0.54680600    -0.37900
N1841       N  0.91242624  0.93363128  0.69764224    -0.37300
N1842       N  0.84910046  0.84110465  0.54836206    -0.37300
C1843       C  0.60082372  0.59377367  0.61433983    -0.04000
C1844       C  0.61497511  0.60911421  0.58796611    -0.01100
C1845       C  0.64243022  0.63682965  0.58837952     0.03900
C1846       C  0.65562262  0.64938489  0.61544013    -0.04000
C1847       C  0.64231462  0.63269113  0.64187010    -0.01100
C1848       C  0.61455125  0.60537447  0.64123873     0.03900
C1849       C  0.60032839  0.59675276  0.56050533     0.38500
C1850       C  0.65817405  0.64252155  0.66969707     0.38500
C1851       C  0.59918994  0.58973688  0.66824356     0.37000
C1852       C  0.65600222  0.65311408  0.56099695     0.37000
N1853       N  0.58672862  0.57759433  0.68987143    -0.37900
N1854       N  0.66692178  0.66594063  0.53911602    -0.37900
N1855       N  0.67103008  0.65022307  0.69184229    -0.37300
N1856       N  0.58847938  0.58685364  0.53863236    -0.37300
loop_ 
_geom_bond_atom_site_label_1 
_geom_bond_atom_site_label_2 
_geom_bond_distance 
_geom_bond_site_symmetry_2 
_ccdc_geom_bond_type 
O1           C17   1.273       .  A
O1           Zn7   2.006       .  S
C2           O18   1.273       .  A
C2           O15   1.274       .  A
C2          C437   1.482       .  S
O3           C16   1.276       .  A
O3          Cd10   2.083       .  S
O4           C22   1.275       .  A
O4          Cd13   2.069       .  S
O5           C19   1.274       .  A
O5           Cd9   2.072       .  S
O6           C17   1.273       .  A
O6           Cd9   2.062       .  S
Zn7          O18   2.005       .  S
Zn7          O20   2.033       .  S
Zn7          O12   1.939       .  S
O8           C19   1.274       .  A
O8          Cd13   2.066       .  S
Cd9          O11   2.063       .  S
Cd9          O12   2.000       .  S
Cd10         O14   2.071       .  S
Cd10         O23   2.066       .  S
Cd10         O12   2.000       .  S
O11          C21   1.275       .  A
O12         Cd13   1.999       .  S
Cd13         O15   2.067       .  S
O14          C21   1.275       .  A
C16          O20   1.275       .  A
C16         C177   1.478       .  S
C17         C423   1.472       .  S
C19         C395   1.495       .  S
C21         C454   1.485       .  S
C22          O23   1.275       .  A
C22         C412   1.477       .  S
C24          C27   1.553       .  S
C24         C426   1.548       .  S
C24         C954   1.534   1_455  S
C24         C492   1.531       .  S
C25          C30   1.553       .  S
C25         C409   1.552       .  S
C25         C493   1.535   1_545  S
C25         C959   1.540       .  S
C26         C952   1.534       .  S
C26          C34   1.379       .  A
C26          C29   1.394       .  A
C27          C38   1.381       .  A
C27        C1422   1.402   1_455  A
C28         C488   1.531   1_545  S
C28          C42   1.381       .  A
C28          C31   1.401       .  A
C29         C489   1.535       .  S
C29          C32   1.383       .  A
C30          C36   1.382       .  A
C30        C1419   1.402   1_545  A
C31         C953   1.540   1_455  S
C31          C39   1.383       .  A
C32          N33   1.353       .  A
C32          H45   1.082       .  S
N33          C34   1.349       .  A
N33         C440   1.434       .  S
C34          H35   1.082       .  S
C36         N965   1.359       .  A
C36          H46   1.081       .  S
N37         C964   1.359   1_455  A
N37         C502   1.359   1_545  A
N37         C384   1.451   1_455  S
C38         N501   1.359       .  A
C38          H44   1.081       .  S
C39          N40   1.349       .  A
C39          H41   1.082       .  S
N40          C42   1.349       .  A
N40         C451   1.433       .  S
C42          H43   1.083       .  S
O47          C63   1.275       .  A
O47         Zn53   2.017   1_455  S
C48          O64   1.275       .  A
C48          O61   1.273       .  A
C48         C339   1.479       .  S
O49         C526   1.274   1_556  A
O49         Cd56   2.078       .  S
O50          C68   1.275       .  A
O50        Cd523   2.071       .  S
O51          C65   1.275   1_455  A
O51         Cd55   2.084       .  S
O52          C63   1.276       .  A
O52         Cd55   2.068       .  S
Zn53         O66   2.045       .  S
Zn53        O992   2.017       .  S
Zn53         O58   1.946       .  S
O54         C993   1.275       .  A
O54         Cd59   2.082       .  S
Cd55        O521   2.077   1_545  S
Cd55         O58   2.005   1_455  S
Cd56         O60   2.061   1_655  S
Cd56        O997   2.057       .  S
Cd56        O522   1.997       .  S
O57          C67   1.275       .  A
O57        Cd519   2.078       .  S
O58        Cd520   1.997   1_545  S
O58        Cd987   2.001       .  S
Cd59         O61   2.063       .  S
Cd59        O514   2.071   1_545  S
Cd59        O986   2.001       .  S
O60          C67   1.274       .  A
C62          O66   1.277   1_554  A
C62         O513   1.274   1_544  A
C62        C1022   1.479       .  S
C63         C328   1.492       .  S
O64        Zn981   2.017       .  S
C65         O982   1.275       .  A
C65         C381   1.487       .  S
C67         C356   1.477       .  S
C68          O69   1.273       .  A
C68         C367   1.473       .  S
O69        Cd984   2.057       .  S
C70          C72   1.536       .  S
C70          C74   1.533       .  S
C70          C73   1.560       .  S
C70         C342   1.543       .  S
C71          C75   1.529       .  S
C71          C77   1.546       .  S
C71          C76   1.548       .  S
C71         C353   1.542       .  S
C72          C80   1.381       .  A
C72          C75   1.381       .  A
C73          C84   1.383       .  A
C73          C76   1.388       .  A
C74          C88   1.379       .  A
C74          C77   1.404       .  A
C75          C78   1.375       .  A
C76          C82   1.380       .  A
C77          C85   1.386       .  A
C78          N79   1.358       .  A
C78          H91   1.083       .  S
N79          C80   1.363       .  A
N79         C370   1.453       .  S
C80          H81   1.080       .  S
C82          N83   1.368       .  A
C82          H92   1.079       .  S
N83          C84   1.368       .  A
N83         C398   1.475       .  S
C84          H90   1.076       .  S
C85          N86   1.352       .  A
C85          H87   1.082       .  S
N86          C88   1.349       .  A
N86         C325   1.437       .  S
C88          H89   1.083       .  S
O93         C109   1.276       .  A
O93         Zn99   2.038       .  S
C94         O107   1.276       .  A
C94         O574   1.279   1_545  A
C94         C990   1.479       .  S
O95         C108   1.273       .  A
O95        Cd566   2.057       .  S
O96         C114   1.275       .  A
O96       Cd1033   2.080   1_455  S
O97         C111   1.274       .  A
O97        Cd101   2.062       .  S
O98         C109   1.276       .  A
O98        Cd565   2.076       .  S
Zn99        O110   2.048       .  S
Zn99       O1040   2.041       .  S
Zn99        O568   1.956       .  S
O100        C111   1.278       .  A
O100       Cd105   2.089       .  S
Cd101       O103   2.099   1_545  S
Cd101       O562   2.076   1_545  S
Cd101       O104   2.003       .  S
Cd102       O106   2.073       .  S
Cd102       O115   2.075       .  S
Cd102       O559   2.057   1_545  S
Cd102      O1032   1.996   1_455  S
O103        C113   1.278   1_565  A
O104       Zn563   1.956   1_545  S
O104       Cd105   2.009       .  S
O104      Cd1030   1.996       .  S
Cd105       O107   2.081       .  S
Cd105      O1024   2.080       .  S
O106       C1041   1.275   1_455  A
C108        O112   1.278       .  A
C108        C283   1.486       .  S
C109        C314   1.512       .  S
O110        C558   1.279       .  A
C111        C297   1.493       .  S
O112      Zn1027   2.041   1_455  S
C113       O1034   1.275       .  A
C113        C258   1.505       .  S
C114        O115   1.275       .  A
C114        C269   1.481       .  S
C116        C118   1.536       .  S
C116        C120   1.527       .  S
C116        C119   1.556       .  S
C116        C286   1.553       .  S
C117        C121   1.564       .  S
C117        C123   1.553       .  S
C117        C122   1.534       .  S
C117        C300   1.550       .  S
C118        C126   1.374       .  A
C118        C121   1.405       .  A
C119        C130   1.389       .  A
C119        C122   1.397       .  A
C120        C134   1.375       .  A
C120        C123   1.388       .  A
C121        C124   1.392       .  A
C122        C128   1.377       .  A
C123        C131   1.388       .  A
C124        N125   1.357       .  A
C124        H137   1.078       .  S
N125        C126   1.351       .  A
N125        C311   1.446       .  S
C126        H127   1.083       .  S
C128        N129   1.353       .  A
C128        H138   1.082       .  S
N129        C130   1.358       .  A
N129        C244   1.441       .  S
C130        H136   1.081       .  S
C131        N132   1.358       .  A
C131        H133   1.080       .  S
N132        C134   1.356       .  A
N132        C272   1.446       .  S
C134        H135   1.083       .  S
C139        C141   1.542       .  S
C139        C142   1.554       .  S
C139        C213   1.546       .  S
C139       C1071   1.523       .  S
C140        C199   1.549       .  S
C140       C1072   1.538   1_455  S
C140        C610   1.531       .  S
C140        C609   1.553       .  S
C141        C613   1.381       .  A
C141        C608   1.399   1_545  A
C142        C153   1.387       .  A
C142       C1073   1.412       .  A
C143       C1067   1.523   1_455  S
C143        C157   1.376       .  A
C143        C146   1.384       .  A
C144       C1068   1.538       .  S
C144        C147   1.378       .  A
C144        C605   1.399       .  A
C145        C604   1.553   1_545  S
C145       C1070   1.412   1_455  A
C145        C615   1.386   1_545  A
C146        C604   1.531   1_545  S
C146        C154   1.380       .  A
C147        N148   1.353       .  A
C147        H160   1.085       .  S
N148        C149   1.356       .  A
N148        C227   1.444       .  S
C149        C605   1.381       .  A
C149        H614   1.081       .  S
H150        C613   1.080       .  S
C151        C609   1.386       .  A
C151       N1544   1.351   1_455  A
C151        H161   1.081       .  S
N152        C153   1.354       .  A
N152       C1543   1.351   1_545  A
N152        C255   1.443       .  S
C153        H159   1.081       .  S
C154        N155   1.358       .  A
C154        H156   1.082       .  S
N155        C157   1.353       .  A
N155        C188   1.441       .  S
C157        H158   1.083       .  S
O162        C178   1.272       .  A
O162       Zn168   2.010       .  S
C163        O179   1.275       .  A
C163        O176   1.273       .  A
C163        C216   1.494       .  S
O164        C177   1.278       .  A
O164       Cd171   2.092       .  S
O165        C183   1.275       .  A
O165       Cd174   2.066       .  S
O166        C180   1.273       .  A
O166       Cd170   2.066       .  S
O167        C178   1.272       .  A
O167       Cd170   2.053       .  S
Zn168       O179   2.021       .  S
Zn168       O181   2.031       .  S
Zn168       O173   1.945       .  S
O169        C180   1.275       .  A
O169       Cd174   2.080       .  S
Cd170       O172   2.052       .  S
Cd170       O173   1.993       .  S
Cd171       O175   2.090       .  S
Cd171       O184   2.086       .  S
Cd171       O173   2.005       .  S
O172        C182   1.273       .  A
O173       Cd174   1.999       .  S
Cd174       O176   2.058       .  S
O175        C182   1.278       .  A
C177        O181   1.276       .  A
C178        C185   1.469       .  S
C180        C241   1.500       .  S
C182        C202   1.484       .  S
C183        O184   1.277       .  A
C183        C230   1.481       .  S
C185        C186   1.408       .  A
C185        C190   1.408       .  A
C186        C187   1.409       .  A
C186        C191   1.451       .  S
C187        C188   1.414       .  A
C187        C194   1.449       .  S
C188        C189   1.413       .  A
C189        C190   1.407       .  A
C189        C192   1.447       .  S
C190        C193   1.452       .  S
C191        N198   1.157       .  T
C192        N197   1.156       .  T
C193        N195   1.157       .  T
C194        N196   1.157       .  T
C199        C200   1.422       .  A
C199        C204   1.430       .  A
C200        C201   1.411       .  A
C200        C205   1.448       .  S
C201        C202   1.411       .  A
C201        C208   1.454       .  S
C202        C203   1.406       .  A
C203        C204   1.412       .  A
C203        C206   1.452       .  S
C204        C207   1.453       .  S
C205        N676   1.158       .  T
C206        N211   1.157       .  T
C207       N1137   1.158       .  T
C208        N210   1.157       .  T
N209       C1135   1.158       .  T
N212        C669   1.157       .  T
C213        C214   1.418       .  A
C213        C218   1.427       .  A
C214        C215   1.411       .  A
C214        C219   1.449       .  S
C215        C216   1.417       .  A
C215        C222   1.453       .  S
C216        C217   1.412       .  A
C217        C218   1.411       .  A
C217        C220   1.454       .  S
C218        C221   1.454       .  S
C219        N226   1.158       .  T
C220        N225   1.158       .  T
C221        N223   1.158       .  T
C222        N224   1.158       .  T
C227        C228   1.413       .  A
C227        C232   1.413       .  A
C228        C229   1.412       .  A
C228        C233   1.449       .  S
C229        C230   1.412       .  A
C229        C236   1.451       .  S
C230        C231   1.410       .  A
C231        C232   1.411       .  A
C231        C234   1.450       .  S
C232        C235   1.449       .  S
C233        N704   1.157       .  T
C234        N239   1.157       .  T
C235        N237   1.157       .  T
C236        N238   1.157       .  T
N240        C697   1.157       .  T
C241        C242   1.420       .  A
C241        C246   1.421       .  A
C242        C243   1.414       .  A
C242        C247   1.451       .  S
C243        C244   1.406       .  A
C243        C250   1.447       .  S
C244        C245   1.406       .  A
C245        C246   1.412       .  A
C245        C248   1.450       .  S
C246        C249   1.452       .  S
C247        N254   1.158       .  T
C248        N253   1.157       .  T
C249        N251   1.157       .  T
C250        N252   1.157       .  T
C255        C256   1.406   1_545  A
C255       C1188   1.406       .  A
C256        C257   1.418       .  A
C256        C261   1.447       .  S
C257        C258   1.421   1_565  A
C257        C264   1.449       .  S
C258       C1187   1.422       .  A
C259        C260   1.411       .  A
C259       C1186   1.422   1_455  A
C259        C262   1.451       .  S
C260       C1183   1.406   1_455  A
C260        C263   1.451       .  S
C261        N268   1.157       .  T
C262        N267   1.157       .  T
C263        N265   1.157       .  T
C264        N266   1.157       .  T
C269        C270   1.408       .  A
C269        C274   1.413       .  A
C270        C271   1.407       .  A
C270        C275   1.451       .  S
C271        C272   1.415       .  A
C271        C278   1.448       .  S
C272        C273   1.413       .  A
C273        C274   1.416       .  A
C273        C276   1.448       .  S
C274        C277   1.450       .  S
C275        N282   1.157       .  T
C276        N281   1.157       .  T
C277        N279   1.157       .  T
C278        N280   1.156       .  T
C283        C284   1.412       .  A
C283        C288   1.407       .  A
C284        C285   1.412       .  A
C284        C289   1.453       .  S
C285        C286   1.419       .  A
C285        C292   1.447       .  S
C286        C287   1.430       .  A
C287        C288   1.413       .  A
C287        C290   1.453       .  S
C288        C291   1.452       .  S
C289        N296   1.157       .  T
C290        N295   1.158       .  T
C291        N293   1.157       .  T
C292        N294   1.157       .  T
C297        C298   1.417       .  A
C297        C302   1.417       .  A
C298        C299   1.413       .  A
C298        C303   1.450       .  S
C299        C300   1.413       .  A
C299        C306   1.450       .  S
C300        C301   1.415       .  A
C301        C302   1.409       .  A
C301        C304   1.451       .  S
C302        C305   1.451       .  S
C303        N310   1.157       .  T
C304        N309   1.158       .  T
C305        N307   1.157       .  T
C306        N308   1.158       .  T
C311        C312   1.411       .  A
C311        C316   1.405       .  A
C312        C313   1.411       .  A
C312        C317   1.451       .  S
C313        C314   1.425       .  A
C313        C320   1.452       .  S
C314        C315   1.427       .  A
C315        C316   1.417       .  A
C315        C318   1.451       .  S
C316        C319   1.450       .  S
C317        N324   1.157       .  T
C318        N323   1.158       .  T
C319        N321   1.157       .  T
C320        N322   1.158       .  T
C325        C326   1.405       .  A
C325        C330   1.407       .  A
C326        C327   1.412       .  A
C326        C331   1.449       .  S
C327        C328   1.420       .  A
C327        C334   1.452       .  S
C328        C329   1.419       .  A
C329        C330   1.409       .  A
C329        C332   1.451       .  S
C330        C333   1.450       .  S
C331        N338   1.157   1_556  T
C332        N337   1.157       .  T
C333        N335   1.157       .  T
C334        N336   1.158   1_556  T
C339        C340   1.409       .  A
C339        C344   1.410       .  A
C340        C341   1.410       .  A
C340        C345   1.452       .  S
C341        C342   1.425       .  A
C341        C348   1.452       .  S
C342        C343   1.418       .  A
C343        C344   1.409       .  A
C343        C346   1.448       .  S
C344        C347   1.452       .  S
C345        N352   1.157       .  T
C346        N351   1.158       .  T
C347        N349   1.157       .  T
C348        N350   1.158       .  T
C353        C354   1.426       .  A
C353        C358   1.417       .  A
C354        C355   1.409       .  A
C354        C359   1.452       .  S
C355        C356   1.406       .  A
C355        C362   1.452       .  S
C356        C357   1.409       .  A
C357        C358   1.410       .  A
C357        C360   1.449       .  S
C358        C361   1.448       .  S
C359        N366   1.158       .  T
C360        N365   1.156       .  T
C361        N363   1.158       .  T
C362        N364   1.157       .  T
C367        C368   1.405       .  A
C367        C372   1.406       .  A
C368        C369   1.409       .  A
C368        C373   1.454       .  S
C369        C370   1.421       .  A
C369        C376   1.446       .  S
C370        C371   1.422       .  A
C371        C372   1.411       .  A
C371        C374   1.450       .  S
C372        C375   1.452       .  S
C373        N380   1.157       .  T
C374        N379   1.157       .  T
C375        N377   1.157       .  T
C376        N378   1.156       .  T
C381        C386   1.412   1_655  A
C381        C846   1.410   1_545  A
C382        C383   1.412       .  A
C382        C845   1.410       .  A
C382        C387   1.451       .  S
C383        C848   1.416       .  A
C383        C390   1.449       .  S
C384        C385   1.417   1_655  A
C384        C847   1.416   1_545  A
C385        C386   1.416       .  A
C385       C1316   1.449       .  S
C386       C1317   1.451       .  S
C387        N394   1.157       .  T
C388       C1313   1.449       .  S
C388        N393   1.157       .  T
C389       C1314   1.451       .  S
C389        N391   1.157       .  T
C390        N392   1.157       .  T
C395        C396   1.409       .  A
C395        C400   1.409       .  A
C396        C397   1.415       .  A
C396        C401   1.455       .  S
C397        C398   1.431       .  A
C397        C404   1.448       .  S
C398        C399   1.433       .  A
C399        C400   1.416       .  A
C399        C402   1.447       .  S
C400        C403   1.456       .  S
C401        N408   1.157       .  T
C402        N407   1.158       .  T
C403        N405   1.157       .  T
C404        N406   1.157       .  T
C409        C410   1.424       .  A
C409        C414   1.431       .  A
C410        C411   1.412       .  A
C410        C415   1.449       .  S
C411        C412   1.407       .  A
C411        C418   1.453       .  S
C412        C413   1.404       .  A
C413        C414   1.409       .  A
C413        C416   1.453       .  S
C414        C417   1.452       .  S
C415        N422   1.157       .  T
C416        N421   1.157       .  T
C417        N419   1.158       .  T
C418        N420   1.157       .  T
C423        C424   1.406       .  A
C423        C428   1.402       .  A
C424        C425   1.411       .  A
C424        C429   1.453       .  S
C425        C426   1.422       .  A
C425        C432   1.447       .  S
C426        C427   1.431       .  A
C427        C428   1.408       .  A
C427        C430   1.453       .  S
C428        C431   1.453       .  S
C429        N436   1.157       .  T
C430       N1363   1.158       .  T
C431        N433   1.157       .  T
C432        N434   1.157       .  T
N435       C1358   1.158       .  T
C437        C438   1.416       .  A
C437        C442   1.415       .  A
C438        C439   1.408       .  A
C438        C443   1.451       .  S
C439        C440   1.404       .  A
C439        C446   1.448       .  S
C440        C441   1.406       .  A
C441        C442   1.410       .  A
C441        C444   1.446       .  S
C442        C445   1.451       .  S
C443        N450   1.157       .  T
C444        N449   1.156       .  T
C445        N447   1.158       .  T
C446        N448   1.157       .  T
C451        C452   1.405       .  A
C451        C456   1.405       .  A
C452        C453   1.410       .  A
C452        C457   1.449       .  S
C453        C454   1.417       .  A
C453        C460   1.451       .  S
C454        C455   1.417       .  A
C455        C456   1.408       .  A
C455        C458   1.452       .  S
C456        C459   1.449       .  S
C457        N464   1.157       .  T
C458        N463   1.157       .  T
C459        N461   1.157       .  T
C460        N462   1.157       .  T
O465        C481   1.273       .  A
O465       Zn471   2.006       .  S
C466        O482   1.273       .  A
C466        O479   1.274       .  A
C466        C901   1.482       .  S
O467        C480   1.276       .  A
O467       Cd474   2.083       .  S
O468        C486   1.274       .  A
O468       Cd477   2.069       .  S
O469        C483   1.274       .  A
O469       Cd473   2.072       .  S
O470        C481   1.273       .  A
O470       Cd473   2.062       .  S
Zn471       O482   2.005       .  S
Zn471       O484   2.033       .  S
Zn471       O476   1.939       .  S
O472        C483   1.274       .  A
O472       Cd477   2.066       .  S
Cd473       O475   2.063       .  S
Cd473       O476   2.000       .  S
Cd474       O478   2.071       .  S
Cd474       O487   2.066       .  S
Cd474       O476   2.000       .  S
O475        C485   1.275       .  A
O476       Cd477   1.999       .  S
Cd477       O479   2.067       .  S
O478        C485   1.275       .  A
C480        O484   1.275       .  A
C480        C641   1.478       .  S
C481        C887   1.472       .  S
C483        C859   1.495       .  S
C485        C918   1.485       .  S
C486        O487   1.275       .  A
C486        C876   1.477       .  S
C488       C1418   1.534   1_455  S
C488        C491   1.553       .  S
C488        C890   1.548       .  S
C489       C1423   1.540       .  S
C489        C494   1.553       .  S
C489        C873   1.552       .  S
C490       C1416   1.534       .  S
C490        C498   1.379       .  A
C490        C493   1.394       .  A
C491        C502   1.381       .  A
C491        C958   1.402   1_465  A
C492        C506   1.381       .  A
C492        C495   1.401       .  A
C493        C496   1.383       .  A
C494        C955   1.402       .  A
C494        C500   1.382       .  A
C495       C1417   1.540   1_455  S
C495        C503   1.383       .  A
C496        N497   1.353       .  A
C496        H509   1.082       .  S
N497        C498   1.349       .  A
N497        C904   1.434       .  S
C498        H499   1.082       .  S
C500       N1429   1.359       .  A
C500        H510   1.081       .  S
N501       C1428   1.359   1_455  A
N501        C848   1.451   1_455  S
C502        H508   1.081       .  S
C503        N504   1.349       .  A
C503        H505   1.082       .  S
N504        C506   1.349       .  A
N504        C915   1.433       .  S
C506        H507   1.083       .  S
O511        C527   1.275       .  A
O511       Zn517   2.017   1_455  S
C512        O528   1.275       .  A
C512        O525   1.273       .  A
C512        C803   1.479       .  S
O513       Cd520   2.078       .  S
O514        C532   1.275       .  A
O515        C529   1.275   1_455  A
O515       Cd519   2.084       .  S
O516        C527   1.276       .  A
O516       Cd519   2.068       .  S
Zn517      O1456   2.017       .  S
Zn517       O530   2.044       .  S
Zn517       O522   1.946       .  S
O518       C1457   1.275       .  A
O518       Cd523   2.082       .  S
Cd519       O522   2.005   1_455  S
Cd520       O524   2.061   1_655  S
Cd520      O1461   2.057       .  S
O521        C531   1.275       .  A
O522      Cd1451   2.001       .  S
Cd523       O525   2.063       .  S
Cd523      O1450   2.001       .  S
O524        C531   1.274       .  A
C526        O530   1.277   1_554  A
C526       C1486   1.479       .  S
C527        C792   1.492       .  S
O528      Zn1445   2.017       .  S
C529       O1446   1.275       .  A
C529        C845   1.488       .  S
C531        C820   1.477       .  S
C532        O533   1.273       .  A
C532        C831   1.473       .  S
O533      Cd1448   2.057       .  S
C534        C536   1.536       .  S
C534        C538   1.533       .  S
C534        C537   1.560       .  S
C534        C806   1.543       .  S
C535        C539   1.529       .  S
C535        C541   1.546       .  S
C535        C540   1.548       .  S
C535        C817   1.542       .  S
C536        C544   1.381       .  A
C536        C539   1.381       .  A
C537        C548   1.383       .  A
C537        C540   1.388       .  A
C538        C552   1.379       .  A
C538        C541   1.404       .  A
C539        C542   1.375       .  A
C540        C546   1.380       .  A
C541        C549   1.386       .  A
C542        N543   1.358       .  A
C542        H555   1.083       .  S
N543        C544   1.363       .  A
N543        C834   1.453       .  S
C544        H545   1.080       .  S
C546        N547   1.368       .  A
C546        H556   1.078       .  S
N547        C548   1.368       .  A
N547        C862   1.475       .  S
C548        H554   1.077       .  S
C549        N550   1.352       .  A
C549        H551   1.082       .  S
N550        C552   1.349       .  A
N550        C789   1.437       .  S
C552        H553   1.083       .  S
O557        C573   1.276       .  A
O557       Zn563   2.038       .  S
C558        O571   1.276       .  A
C558       C1454   1.479       .  S
O559        C572   1.273       .  A
O560        C578   1.275       .  A
O560      Cd1497   2.080   1_455  S
O561        C575   1.274       .  A
O561       Cd565   2.062       .  S
O562        C573   1.276       .  A
Zn563       O574   2.048       .  S
Zn563      O1504   2.041       .  S
O564        C575   1.278       .  A
O564       Cd569   2.089       .  S
Cd565       O567   2.099       .  S
Cd565       O568   2.003       .  S
Cd566       O570   2.073       .  S
Cd566       O579   2.075       .  S
Cd566      O1496   1.996   1_455  S
O567        C577   1.278       .  A
O568      Cd1494   1.996       .  S
O568       Cd569   2.009       .  S
Cd569      O1488   2.080       .  S
Cd569       O571   2.081       .  S
O570       C1505   1.275   1_455  A
C572        O576   1.278       .  A
C572        C747   1.486       .  S
C573        C778   1.512       .  S
C575        C761   1.493       .  S
O576      Zn1491   2.041   1_455  S
C577       O1498   1.275       .  A
C577        C722   1.505       .  S
C578        O579   1.275       .  A
C578        C733   1.481       .  S
C580        C582   1.536       .  S
C580        C584   1.527       .  S
C580        C583   1.556       .  S
C580        C750   1.553       .  S
C581        C585   1.564       .  S
C581        C587   1.553       .  S
C581        C586   1.534       .  S
C581        C764   1.550       .  S
C582        C590   1.374       .  A
C582        C585   1.405       .  A
C583        C594   1.389       .  A
C583        C586   1.397       .  A
C584        C598   1.375       .  A
C584        C587   1.388       .  A
C585        C588   1.392       .  A
C586        C592   1.377       .  A
C587        C595   1.388       .  A
C588        N589   1.357       .  A
C588        H601   1.078       .  S
N589        C590   1.351       .  A
N589        C775   1.446       .  S
C590        H591   1.083       .  S
C592        N593   1.353       .  A
C592        H602   1.082       .  S
N593        C594   1.358       .  A
N593        C708   1.441       .  S
C594        H600   1.081       .  S
C595        N596   1.358       .  A
C595        H597   1.080       .  S
N596        C598   1.356       .  A
N596        C736   1.446       .  S
C598        H599   1.083       .  S
C603        C605   1.542       .  S
C603       C1535   1.523       .  S
C603        C606   1.554       .  S
C603        C677   1.546       .  S
C604       C1536   1.538   1_455  S
C604        C663   1.549       .  S
C606        C617   1.387       .  A
C606       C1537   1.412       .  A
C607       C1531   1.523   1_455  S
C607        C621   1.376       .  A
C607        C610   1.384       .  A
C608       C1532   1.538       .  S
C608        C611   1.378       .  A
C609       C1534   1.412   1_455  A
C610        C618   1.380       .  A
C611        N612   1.353       .  A
C611        H624   1.085       .  S
N612        C613   1.356   1_565  A
N612        C691   1.444       .  S
C615       N1080   1.351   1_465  A
C615        H625   1.081       .  S
N616       C1079   1.351       .  A
N616        C617   1.354       .  A
N616        C719   1.443       .  S
C617        H623   1.081       .  S
C618        N619   1.358       .  A
C618        H620   1.082       .  S
N619        C621   1.353       .  A
N619        C652   1.441       .  S
C621        H622   1.083       .  S
O626        C642   1.272       .  A
O626       Zn632   2.010       .  S
C627        O643   1.275       .  A
C627        O640   1.273       .  A
C627        C680   1.494       .  S
O628        C641   1.278       .  A
O628       Cd635   2.092       .  S
O629        C647   1.275       .  A
O629       Cd638   2.066       .  S
O630        C644   1.273       .  A
O630       Cd634   2.066       .  S
O631        C642   1.272       .  A
O631       Cd634   2.053       .  S
Zn632       O643   2.021       .  S
Zn632       O645   2.031       .  S
Zn632       O637   1.945       .  S
O633        C644   1.275       .  A
O633       Cd638   2.080       .  S
Cd634       O636   2.052       .  S
Cd634       O637   1.993       .  S
Cd635       O639   2.090       .  S
Cd635       O648   2.086       .  S
Cd635       O637   2.005       .  S
O636        C646   1.273       .  A
O637       Cd638   1.998       .  S
Cd638       O640   2.058       .  S
O639        C646   1.278       .  A
C641        O645   1.276       .  A
C642        C649   1.469       .  S
C644        C705   1.500       .  S
C646        C666   1.484       .  S
C647        O648   1.277       .  A
C647        C694   1.481       .  S
C649        C650   1.408       .  A
C649        C654   1.408       .  A
C650        C651   1.409       .  A
C650        C655   1.451       .  S
C651        C652   1.414       .  A
C651        C658   1.449       .  S
C652        C653   1.413       .  A
C653        C654   1.407       .  A
C653        C656   1.447       .  S
C654        C657   1.452       .  S
C655        N662   1.157       .  T
C656        N661   1.156       .  T
C657        N659   1.157       .  T
C658        N660   1.157       .  T
C663        C664   1.422       .  A
C663        C668   1.430       .  A
C664        C665   1.411       .  A
C664        C669   1.448       .  S
C665        C666   1.411       .  A
C665        C672   1.454       .  S
C666        C667   1.406       .  A
C667        C668   1.412       .  A
C667        C670   1.452       .  S
C668        C671   1.453       .  S
C670        N675   1.157       .  T
C671       N1601   1.158       .  T
C672        N674   1.157       .  T
N673       C1599   1.158       .  T
C677        C678   1.418       .  A
C677        C682   1.427       .  A
C678        C679   1.411       .  A
C678        C683   1.449       .  S
C679        C680   1.417       .  A
C679        C686   1.453       .  S
C680        C681   1.412       .  A
C681        C682   1.411       .  A
C681        C684   1.454       .  S
C682        C685   1.454       .  S
C683        N690   1.158       .  T
C684        N689   1.158       .  T
C685        N687   1.158       .  T
C686        N688   1.158       .  T
C691        C692   1.413       .  A
C691        C696   1.413       .  A
C692        C693   1.412       .  A
C692        C697   1.449       .  S
C693        C694   1.412       .  A
C693        C700   1.451       .  S
C694        C695   1.410       .  A
C695        C696   1.411       .  A
C695        C698   1.450       .  S
C696        C699   1.449       .  S
C698        N703   1.157       .  T
C699        N701   1.157       .  T
C700        N702   1.157       .  T
C705        C706   1.420       .  A
C705        C710   1.421       .  A
C706        C707   1.414       .  A
C706        C711   1.451       .  S
C707        C708   1.406       .  A
C707        C714   1.447       .  S
C708        C709   1.406       .  A
C709        C710   1.412       .  A
C709        C712   1.450       .  S
C710        C713   1.452       .  S
C711        N718   1.157       .  T
C712        N717   1.157       .  T
C713        N715   1.157       .  T
C714        N716   1.157       .  T
C719        C720   1.406       .  A
C719       C1652   1.406       .  A
C720        C721   1.418       .  A
C720        C725   1.447       .  S
C721        C722   1.421       .  A
C721        C728   1.449       .  S
C722       C1651   1.422       .  A
C723       C1650   1.422   1_455  A
C723        C724   1.411       .  A
C723        C726   1.451       .  S
C724       C1647   1.406   1_455  A
C724        C727   1.451       .  S
C725        N732   1.157       .  T
C726        N731   1.157       .  T
C727        N729   1.157       .  T
C728        N730   1.157       .  T
C733        C734   1.408       .  A
C733        C738   1.413       .  A
C734        C735   1.407       .  A
C734        C739   1.451       .  S
C735        C736   1.415       .  A
C735        C742   1.448       .  S
C736        C737   1.413       .  A
C737        C738   1.416       .  A
C737        C740   1.448       .  S
C738        C741   1.450       .  S
C739        N746   1.157       .  T
C740        N745   1.157       .  T
C741        N743   1.157       .  T
C742        N744   1.156       .  T
C747        C748   1.412       .  A
C747        C752   1.407       .  A
C748        C749   1.412       .  A
C748        C753   1.453       .  S
C749        C750   1.419       .  A
C749        C756   1.447       .  S
C750        C751   1.430       .  A
C751        C752   1.413       .  A
C751        C754   1.453       .  S
C752        C755   1.452       .  S
C753        N760   1.157       .  T
C754        N759   1.158       .  T
C755        N757   1.157       .  T
C756        N758   1.157       .  T
C761        C762   1.417       .  A
C761        C766   1.417       .  A
C762        C763   1.413       .  A
C762        C767   1.450       .  S
C763        C764   1.413       .  A
C763        C770   1.450       .  S
C764        C765   1.415       .  A
C765        C766   1.409       .  A
C765        C768   1.451       .  S
C766        C769   1.451       .  S
C767        N774   1.157       .  T
C768        N773   1.158       .  T
C769        N771   1.158       .  T
C770        N772   1.158       .  T
C775        C776   1.411       .  A
C775        C780   1.405       .  A
C776        C777   1.411       .  A
C776        C781   1.451       .  S
C777        C778   1.425       .  A
C777        C784   1.452       .  S
C778        C779   1.427       .  A
C779        C780   1.417       .  A
C779        C782   1.451       .  S
C780        C783   1.450       .  S
C781        N788   1.157       .  T
C782        N787   1.158       .  T
C783        N785   1.157       .  T
C784        N786   1.158       .  T
C789        C790   1.405       .  A
C789        C794   1.407       .  A
C790        C791   1.412       .  A
C790        C795   1.449       .  S
C791        C792   1.420       .  A
C791        C798   1.452       .  S
C792        C793   1.419       .  A
C793        C794   1.409       .  A
C793        C796   1.451       .  S
C794        C797   1.450       .  S
C795        N802   1.157   1_556  T
C796        N801   1.157       .  T
C797        N799   1.157       .  T
C798        N800   1.158   1_556  T
C803        C804   1.409       .  A
C803        C808   1.410       .  A
C804        C805   1.410       .  A
C804        C809   1.452       .  S
C805        C806   1.425       .  A
C805        C812   1.452       .  S
C806        C807   1.418       .  A
C807        C808   1.409       .  A
C807        C810   1.448       .  S
C808        C811   1.452       .  S
C809        N816   1.157       .  T
C810        N815   1.158       .  T
C811        N813   1.157       .  T
C812        N814   1.158       .  T
C817        C818   1.426       .  A
C817        C822   1.417       .  A
C818        C819   1.409       .  A
C818        C823   1.452       .  S
C819        C820   1.406       .  A
C819        C826   1.452       .  S
C820        C821   1.409       .  A
C821        C822   1.410       .  A
C821        C824   1.449       .  S
C822        C825   1.448       .  S
C823        N830   1.158       .  T
C824        N829   1.157       .  T
C825        N827   1.158       .  T
C826        N828   1.157       .  T
C831        C832   1.405       .  A
C831        C836   1.406       .  A
C832        C833   1.409       .  A
C832        C837   1.454       .  S
C833        C834   1.421       .  A
C833        C840   1.446       .  S
C834        C835   1.422       .  A
C835        C836   1.411       .  A
C835        C838   1.450       .  S
C836        C839   1.452       .  S
C837        N844   1.157       .  T
C838        N843   1.157       .  T
C839        N841   1.157       .  T
C840        N842   1.156       .  T
C845        C850   1.412   1_655  A
C846        C847   1.412       .  A
C846        C851   1.451       .  S
C847        C854   1.449       .  S
C848        C849   1.417   1_655  A
C849        C850   1.416       .  A
C849       C1780   1.449       .  S
C850       C1781   1.451       .  S
C851        N858   1.157       .  T
C852       C1777   1.449       .  S
C852        N857   1.157       .  T
C853       C1778   1.451       .  S
C853        N855   1.157       .  T
C854        N856   1.157       .  T
C859        C860   1.409       .  A
C859        C864   1.409       .  A
C860        C861   1.415       .  A
C860        C865   1.455       .  S
C861        C862   1.431       .  A
C861        C868   1.448       .  S
C862        C863   1.433       .  A
C863        C864   1.416       .  A
C863        C866   1.447       .  S
C864        C867   1.456       .  S
C865        N872   1.158       .  T
C866        N871   1.158       .  T
C867        N869   1.157       .  T
C868        N870   1.157       .  T
C873        C874   1.424       .  A
C873        C878   1.431       .  A
C874        C875   1.412       .  A
C874        C879   1.449       .  S
C875        C876   1.407       .  A
C875        C882   1.453       .  S
C876        C877   1.404       .  A
C877        C878   1.409       .  A
C877        C880   1.453       .  S
C878        C881   1.452       .  S
C879        N886   1.157       .  T
C880        N885   1.157       .  T
C881        N883   1.158       .  T
C882        N884   1.157       .  T
C887        C888   1.406       .  A
C887        C892   1.402       .  A
C888        C889   1.411       .  A
C888        C893   1.453       .  S
C889        C890   1.422       .  A
C889        C896   1.447       .  S
C890        C891   1.431       .  A
C891        C892   1.408       .  A
C891        C894   1.453       .  S
C892        C895   1.453       .  S
C893        N900   1.157       .  T
C894       N1827   1.158       .  T
C895        N897   1.157       .  T
C896        N898   1.157       .  T
N899       C1822   1.158       .  T
C901        C902   1.416       .  A
C901        C906   1.415       .  A
C902        C903   1.408       .  A
C902        C907   1.451       .  S
C903        C904   1.404       .  A
C903        C910   1.448       .  S
C904        C905   1.406       .  A
C905        C906   1.410       .  A
C905        C908   1.446       .  S
C906        C909   1.451       .  S
C907        N914   1.157       .  T
C908        N913   1.156       .  T
C909        N911   1.158       .  T
C910        N912   1.157       .  T
C915        C916   1.405       .  A
C915        C920   1.405       .  A
C916        C917   1.410       .  A
C916        C921   1.449       .  S
C917        C918   1.417       .  A
C917        C924   1.451       .  S
C918        C919   1.417       .  A
C919        C920   1.408       .  A
C919        C922   1.452       .  S
C920        C923   1.449       .  S
C921        N928   1.157       .  T
C922        N927   1.158       .  T
C923        N925   1.157       .  T
C924        N926   1.157       .  T
O929        C945   1.273       .  A
O929       Zn935   2.006       .  S
C930        O946   1.273       .  A
C930        O943   1.274       .  A
C930       C1365   1.482       .  S
O931        C944   1.276       .  A
O931       Cd938   2.083       .  S
O932        C950   1.275       .  A
O932       Cd941   2.069       .  S
O933        C947   1.274       .  A
O933       Cd937   2.072       .  S
O934        C945   1.273       .  A
O934       Cd937   2.062       .  S
Zn935       O946   2.005       .  S
Zn935       O948   2.033       .  S
Zn935       O940   1.939       .  S
O936        C947   1.274       .  A
O936       Cd941   2.066       .  S
Cd937       O939   2.063       .  S
Cd937       O940   2.000       .  S
Cd938       O942   2.071       .  S
Cd938       O951   2.066       .  S
Cd938       O940   2.000       .  S
O939        C949   1.275       .  A
O940       Cd941   1.999       .  S
Cd941       O943   2.067       .  S
O942        C949   1.275       .  A
C944        O948   1.275       .  A
C944       C1105   1.478       .  S
C945       C1351   1.472       .  S
C947       C1323   1.495       .  S
C949       C1382   1.485       .  S
C950        O951   1.275       .  A
C950       C1340   1.477       .  S
C952       C1420   1.531       .  S
C952        C955   1.553       .  S
C952       C1354   1.548       .  S
C953       C1421   1.535   1_545  S
C953        C958   1.553       .  S
C953       C1337   1.552       .  S
C954        C962   1.379       .  A
C954        C957   1.394       .  A
C955        C966   1.381       .  A
C956       C1416   1.531   1_545  S
C956        C970   1.381       .  A
C956        C959   1.401       .  A
C957       C1417   1.535       .  S
C957        C960   1.383       .  A
C958        C964   1.382       .  A
C959        C967   1.383       .  A
C960        N961   1.353       .  A
C960        H973   1.082       .  S
N961        C962   1.349       .  A
N961       C1368   1.434       .  S
C962        H963   1.082       .  S
C964        H974   1.081       .  S
N965       C1430   1.359   1_545  A
N965       C1312   1.451       .  S
C966       N1429   1.359       .  A
C966        H972   1.081       .  S
C967        N968   1.349       .  A
C967        H969   1.082       .  S
N968        C970   1.349       .  A
N968       C1379   1.433       .  S
C970        H971   1.083       .  S
O975        C991   1.275       .  A
O975       Zn981   2.017       .  S
C976        O992   1.275       .  A
C976        O989   1.273       .  A
C976       C1267   1.479       .  S
O977       C1454   1.274   1_556  A
O977       Cd984   2.078       .  S
O978        C996   1.275       .  A
O978      Cd1451   2.071       .  S
O979        C993   1.275       .  A
O979       Cd983   2.084       .  S
O980        C991   1.276       .  A
O980       Cd983   2.068       .  S
Zn981       O994   2.045       .  S
Zn981       O986   1.946       .  S
O982       Cd987   2.082       .  S
Cd983      O1449   2.077   1_545  S
Cd983       O986   2.005       .  S
Cd984       O988   2.061       .  S
Cd984      O1450   1.997       .  S
O985        C995   1.275       .  A
O985      Cd1447   2.078       .  S
O986      Cd1448   1.997   1_545  S
Cd987      O1442   2.071   1_545  S
Cd987       O989   2.063       .  S
O988        C995   1.274       .  A
C990       O1441   1.274   1_544  A
C990        O994   1.277   1_554  A
C991       C1256   1.492       .  S
C993       C1309   1.487       .  S
C995       C1284   1.477       .  S
C996        O997   1.273       .  A
C996       C1295   1.473       .  S
C998       C1000   1.536       .  S
C998       C1002   1.533       .  S
C998       C1001   1.560       .  S
C998       C1270   1.543       .  S
C999       C1003   1.529       .  S
C999       C1005   1.546       .  S
C999       C1004   1.548       .  S
C999       C1281   1.542       .  S
C1000      C1008   1.381       .  A
C1000      C1003   1.381       .  A
C1001      C1012   1.383       .  A
C1001      C1004   1.388       .  A
C1002      C1016   1.379       .  A
C1002      C1005   1.404       .  A
C1003      C1006   1.375       .  A
C1004      C1010   1.380       .  A
C1005      C1013   1.386       .  A
C1006      N1007   1.358       .  A
C1006      H1019   1.083       .  S
N1007      C1008   1.363       .  A
N1007      C1298   1.453       .  S
C1008      H1009   1.080       .  S
C1010      N1011   1.368       .  A
C1010      H1020   1.078       .  S
N1011      C1012   1.368       .  A
N1011      C1326   1.475       .  S
C1012      H1018   1.076       .  S
C1013      N1014   1.352       .  A
C1013      H1015   1.082       .  S
N1014      C1016   1.349       .  A
N1014      C1253   1.437       .  S
C1016      H1017   1.083       .  S
O1021      C1037   1.276       .  A
O1021     Zn1027   2.038       .  S
C1022      O1502   1.279   1_545  A
C1022      O1035   1.276       .  A
O1023      C1036   1.273       .  A
O1023     Cd1494   2.057       .  S
O1024      C1042   1.275       .  A
O1025      C1039   1.274       .  A
O1025     Cd1029   2.062       .  S
O1026      C1037   1.276       .  A
O1026     Cd1493   2.076       .  S
Zn1027     O1038   2.048       .  S
Zn1027     O1496   1.956       .  S
O1028      C1039   1.278       .  A
O1028     Cd1033   2.089       .  S
Cd1029     O1490   2.076   1_545  S
Cd1029     O1031   2.099   1_545  S
Cd1029     O1032   2.003       .  S
Cd1030     O1487   2.057   1_545  S
Cd1030     O1034   2.073       .  S
Cd1030     O1043   2.075       .  S
O1031      C1041   1.278   1_565  A
O1032     Zn1491   1.956   1_545  S
O1032     Cd1033   2.009       .  S
Cd1033     O1035   2.081       .  S
C1036      O1040   1.278       .  A
C1036      C1211   1.486       .  S
C1037      C1242   1.512       .  S
O1038      C1486   1.279       .  A
C1039      C1225   1.493       .  S
C1041      C1186   1.505       .  S
C1042      O1043   1.275       .  A
C1042      C1197   1.481       .  S
C1044      C1046   1.536       .  S
C1044      C1048   1.527       .  S
C1044      C1047   1.556       .  S
C1044      C1214   1.553       .  S
C1045      C1049   1.564       .  S
C1045      C1051   1.553       .  S
C1045      C1050   1.534       .  S
C1045      C1228   1.550       .  S
C1046      C1054   1.374       .  A
C1046      C1049   1.405       .  A
C1047      C1058   1.389       .  A
C1047      C1050   1.397       .  A
C1048      C1062   1.375       .  A
C1048      C1051   1.388       .  A
C1049      C1052   1.392       .  A
C1050      C1056   1.377       .  A
C1051      C1059   1.388       .  A
C1052      N1053   1.357       .  A
C1052      H1065   1.078       .  S
N1053      C1054   1.351       .  A
N1053      C1239   1.446       .  S
C1054      H1055   1.083       .  S
C1056      N1057   1.353       .  A
C1056      H1066   1.082       .  S
N1057      C1058   1.358       .  A
N1057      C1172   1.441       .  S
C1058      H1064   1.081       .  S
C1059      N1060   1.358       .  A
C1059      H1061   1.080       .  S
N1060      C1062   1.356       .  A
N1060      C1200   1.446       .  S
C1062      H1063   1.083       .  S
C1067      C1069   1.542       .  S
C1067      C1070   1.554       .  S
C1067      C1141   1.546       .  S
C1068      C1538   1.531       .  S
C1068      C1537   1.553       .  S
C1068      C1127   1.549       .  S
C1069      C1541   1.381       .  A
C1069      C1536   1.399   1_545  A
C1070      C1081   1.387       .  A
C1071      C1085   1.376       .  A
C1071      C1074   1.384       .  A
C1072      C1533   1.399       .  A
C1072      C1075   1.378       .  A
C1073      C1532   1.553   1_545  S
C1073      C1543   1.386   1_545  A
C1074      C1532   1.531   1_545  S
C1074      C1082   1.380       .  A
C1075      N1076   1.353       .  A
C1075      H1088   1.085       .  S
N1076      C1077   1.356       .  A
N1076      C1155   1.444       .  S
C1077      C1533   1.381       .  A
C1077      H1542   1.081       .  S
H1078      C1541   1.080       .  S
C1079      C1537   1.386       .  A
C1079      H1089   1.081       .  S
N1080      C1081   1.354       .  A
N1080      C1183   1.443       .  S
C1081      H1087   1.081       .  S
C1082      N1083   1.357       .  A
C1082      H1084   1.082       .  S
N1083      C1085   1.353       .  A
N1083      C1116   1.441       .  S
C1085      H1086   1.083       .  S
O1090      C1106   1.272       .  A
O1090     Zn1096   2.010       .  S
C1091      O1107   1.275       .  A
C1091      O1104   1.273       .  A
C1091      C1144   1.494       .  S
O1092      C1105   1.278       .  A
O1092     Cd1099   2.092       .  S
O1093      C1111   1.275       .  A
O1093     Cd1102   2.066       .  S
O1094      C1108   1.273       .  A
O1094     Cd1098   2.066       .  S
O1095      C1106   1.272       .  A
O1095     Cd1098   2.053       .  S
Zn1096     O1107   2.021       .  S
Zn1096     O1109   2.031       .  S
Zn1096     O1101   1.945       .  S
O1097      C1108   1.275       .  A
O1097     Cd1102   2.080       .  S
Cd1098     O1100   2.052       .  S
Cd1098     O1101   1.993       .  S
Cd1099     O1103   2.090       .  S
Cd1099     O1112   2.086       .  S
Cd1099     O1101   2.005       .  S
O1100      C1110   1.273       .  A
O1101     Cd1102   1.999       .  S
Cd1102     O1104   2.058       .  S
O1103      C1110   1.278       .  A
C1105      O1109   1.276       .  A
C1106      C1113   1.469       .  S
C1108      C1169   1.500       .  S
C1110      C1130   1.484       .  S
C1111      O1112   1.277       .  A
C1111      C1158   1.481       .  S
C1113      C1114   1.408       .  A
C1113      C1118   1.408       .  A
C1114      C1115   1.409       .  A
C1114      C1119   1.451       .  S
C1115      C1116   1.414       .  A
C1115      C1122   1.449       .  S
C1116      C1117   1.413       .  A
C1117      C1118   1.407       .  A
C1117      C1120   1.447       .  S
C1118      C1121   1.452       .  S
C1119      N1126   1.157       .  T
C1120      N1125   1.156       .  T
C1121      N1123   1.157       .  T
C1122      N1124   1.157       .  T
C1127      C1128   1.422       .  A
C1127      C1132   1.430       .  A
C1128      C1129   1.411       .  A
C1128      C1133   1.448       .  S
C1129      C1130   1.411       .  A
C1129      C1136   1.454       .  S
C1130      C1131   1.406       .  A
C1131      C1132   1.412       .  A
C1131      C1134   1.452       .  S
C1132      C1135   1.453       .  S
C1133      N1604   1.158       .  T
C1134      N1139   1.157       .  T
C1136      N1138   1.157       .  T
N1140      C1597   1.157       .  T
C1141      C1142   1.418       .  A
C1141      C1146   1.427       .  A
C1142      C1143   1.411       .  A
C1142      C1147   1.449       .  S
C1143      C1144   1.417       .  A
C1143      C1150   1.453       .  S
C1144      C1145   1.412       .  A
C1145      C1146   1.411       .  A
C1145      C1148   1.454       .  S
C1146      C1149   1.454       .  S
C1147      N1154   1.158       .  T
C1148      N1153   1.158       .  T
C1149      N1151   1.158       .  T
C1150      N1152   1.158       .  T
C1155      C1156   1.413       .  A
C1155      C1160   1.413       .  A
C1156      C1157   1.412       .  A
C1156      C1161   1.449       .  S
C1157      C1158   1.412       .  A
C1157      C1164   1.451       .  S
C1158      C1159   1.410       .  A
C1159      C1160   1.411       .  A
C1159      C1162   1.450       .  S
C1160      C1163   1.449       .  S
C1161      N1632   1.157       .  T
C1162      N1167   1.157       .  T
C1163      N1165   1.157       .  T
C1164      N1166   1.157       .  T
N1168      C1625   1.157       .  T
C1169      C1170   1.420       .  A
C1169      C1174   1.421       .  A
C1170      C1171   1.414       .  A
C1170      C1175   1.451       .  S
C1171      C1172   1.406       .  A
C1171      C1178   1.447       .  S
C1172      C1173   1.406       .  A
C1173      C1174   1.412       .  A
C1173      C1176   1.450       .  S
C1174      C1177   1.452       .  S
C1175      N1182   1.157       .  T
C1176      N1181   1.157       .  T
C1177      N1179   1.157       .  T
C1178      N1180   1.157       .  T
C1183      C1184   1.406   1_545  A
C1184      C1185   1.418       .  A
C1184      C1189   1.447       .  S
C1185      C1186   1.421   1_565  A
C1185      C1192   1.449       .  S
C1187      C1188   1.411       .  A
C1187      C1190   1.451       .  S
C1188      C1191   1.451       .  S
C1189      N1196   1.157       .  T
C1190      N1195   1.157       .  T
C1191      N1193   1.157       .  T
C1192      N1194   1.157       .  T
C1197      C1198   1.408       .  A
C1197      C1202   1.413       .  A
C1198      C1199   1.407       .  A
C1198      C1203   1.451       .  S
C1199      C1200   1.415       .  A
C1199      C1206   1.448       .  S
C1200      C1201   1.413       .  A
C1201      C1202   1.416       .  A
C1201      C1204   1.448       .  S
C1202      C1205   1.450       .  S
C1203      N1210   1.157       .  T
C1204      N1209   1.157       .  T
C1205      N1207   1.157       .  T
C1206      N1208   1.156       .  T
C1211      C1212   1.412       .  A
C1211      C1216   1.407       .  A
C1212      C1213   1.412       .  A
C1212      C1217   1.453       .  S
C1213      C1214   1.419       .  A
C1213      C1220   1.447       .  S
C1214      C1215   1.430       .  A
C1215      C1216   1.413       .  A
C1215      C1218   1.453       .  S
C1216      C1219   1.452       .  S
C1217      N1224   1.157       .  T
C1218      N1223   1.158       .  T
C1219      N1221   1.157       .  T
C1220      N1222   1.157       .  T
C1225      C1226   1.417       .  A
C1225      C1230   1.417       .  A
C1226      C1227   1.413       .  A
C1226      C1231   1.450       .  S
C1227      C1228   1.413       .  A
C1227      C1234   1.450       .  S
C1228      C1229   1.415       .  A
C1229      C1230   1.409       .  A
C1229      C1232   1.451       .  S
C1230      C1233   1.451       .  S
C1231      N1238   1.157       .  T
C1232      N1237   1.158       .  T
C1233      N1235   1.157       .  T
C1234      N1236   1.158       .  T
C1239      C1240   1.411       .  A
C1239      C1244   1.405       .  A
C1240      C1241   1.411       .  A
C1240      C1245   1.451       .  S
C1241      C1242   1.425       .  A
C1241      C1248   1.452       .  S
C1242      C1243   1.427       .  A
C1243      C1244   1.417       .  A
C1243      C1246   1.451       .  S
C1244      C1247   1.450       .  S
C1245      N1252   1.157       .  T
C1246      N1251   1.158       .  T
C1247      N1249   1.157       .  T
C1248      N1250   1.157       .  T
C1253      C1254   1.405       .  A
C1253      C1258   1.407       .  A
C1254      C1255   1.412       .  A
C1254      C1259   1.449       .  S
C1255      C1256   1.420       .  A
C1255      C1262   1.452       .  S
C1256      C1257   1.419       .  A
C1257      C1258   1.409       .  A
C1257      C1260   1.451       .  S
C1258      C1261   1.450       .  S
C1259      N1266   1.157   1_556  T
C1260      N1265   1.157       .  T
C1261      N1263   1.157       .  T
C1262      N1264   1.158   1_556  T
C1267      C1268   1.409       .  A
C1267      C1272   1.410       .  A
C1268      C1269   1.410       .  A
C1268      C1273   1.452       .  S
C1269      C1270   1.425       .  A
C1269      C1276   1.452       .  S
C1270      C1271   1.418       .  A
C1271      C1272   1.409       .  A
C1271      C1274   1.448       .  S
C1272      C1275   1.452       .  S
C1273      N1280   1.157       .  T
C1274      N1279   1.158       .  T
C1275      N1277   1.157       .  T
C1276      N1278   1.158       .  T
C1281      C1282   1.426       .  A
C1281      C1286   1.417       .  A
C1282      C1283   1.409       .  A
C1282      C1287   1.452       .  S
C1283      C1284   1.406       .  A
C1283      C1290   1.452       .  S
C1284      C1285   1.409       .  A
C1285      C1286   1.410       .  A
C1285      C1288   1.449       .  S
C1286      C1289   1.448       .  S
C1287      N1294   1.158       .  T
C1288      N1293   1.156       .  T
C1289      N1291   1.158       .  T
C1290      N1292   1.157       .  T
C1295      C1296   1.405       .  A
C1295      C1300   1.406       .  A
C1296      C1297   1.409       .  A
C1296      C1301   1.454       .  S
C1297      C1298   1.421       .  A
C1297      C1304   1.446       .  S
C1298      C1299   1.422       .  A
C1299      C1300   1.411       .  A
C1299      C1302   1.450       .  S
C1300      C1303   1.452       .  S
C1301      N1308   1.157       .  T
C1302      N1307   1.157       .  T
C1303      N1305   1.157       .  T
C1304      N1306   1.156       .  T
C1309      C1774   1.410   1_545  A
C1309      C1314   1.412       .  A
C1310      C1773   1.410       .  A
C1310      C1311   1.412       .  A
C1310      C1315   1.451       .  S
C1311      C1776   1.416       .  A
C1311      C1318   1.449       .  S
C1312      C1775   1.416   1_545  A
C1312      C1313   1.417       .  A
C1313      C1314   1.416       .  A
C1315      N1322   1.157       .  T
C1316      N1321   1.157       .  T
C1317      N1319   1.157       .  T
C1318      N1320   1.157       .  T
C1323      C1324   1.409       .  A
C1323      C1328   1.409       .  A
C1324      C1325   1.415       .  A
C1324      C1329   1.455       .  S
C1325      C1326   1.431       .  A
C1325      C1332   1.448       .  S
C1326      C1327   1.433       .  A
C1327      C1328   1.416       .  A
C1327      C1330   1.447       .  S
C1328      C1331   1.456       .  S
C1329      N1336   1.157       .  T
C1330      N1335   1.158       .  T
C1331      N1333   1.157       .  T
C1332      N1334   1.157       .  T
C1337      C1338   1.424       .  A
C1337      C1342   1.431       .  A
C1338      C1339   1.412       .  A
C1338      C1343   1.449       .  S
C1339      C1340   1.407       .  A
C1339      C1346   1.453       .  S
C1340      C1341   1.404       .  A
C1341      C1342   1.409       .  A
C1341      C1344   1.453       .  S
C1342      C1345   1.452       .  S
C1343      N1350   1.157       .  T
C1344      N1349   1.157       .  T
C1345      N1347   1.158       .  T
C1346      N1348   1.157       .  T
C1351      C1352   1.406       .  A
C1351      C1356   1.402       .  A
C1352      C1353   1.411       .  A
C1352      C1357   1.453       .  S
C1353      C1354   1.422       .  A
C1353      C1360   1.447       .  S
C1354      C1355   1.431       .  A
C1355      C1356   1.408       .  A
C1355      C1358   1.453       .  S
C1356      C1359   1.453       .  S
C1357      N1364   1.157       .  T
C1359      N1361   1.157       .  T
C1360      N1362   1.157       .  T
C1365      C1366   1.416       .  A
C1365      C1370   1.415       .  A
C1366      C1367   1.408       .  A
C1366      C1371   1.451       .  S
C1367      C1368   1.404       .  A
C1367      C1374   1.448       .  S
C1368      C1369   1.406       .  A
C1369      C1370   1.410       .  A
C1369      C1372   1.446       .  S
C1370      C1373   1.451       .  S
C1371      N1378   1.157       .  T
C1372      N1377   1.156       .  T
C1373      N1375   1.157       .  T
C1374      N1376   1.157       .  T
C1379      C1380   1.405       .  A
C1379      C1384   1.405       .  A
C1380      C1381   1.410       .  A
C1380      C1385   1.449       .  S
C1381      C1382   1.417       .  A
C1381      C1388   1.451       .  S
C1382      C1383   1.417       .  A
C1383      C1384   1.408       .  A
C1383      C1386   1.452       .  S
C1384      C1387   1.449       .  S
C1385      N1392   1.157       .  T
C1386      N1391   1.157       .  T
C1387      N1389   1.157       .  T
C1388      N1390   1.157       .  T
O1393      C1409   1.273       .  A
O1393     Zn1399   2.006       .  S
C1394      O1410   1.273       .  A
C1394      O1407   1.274       .  A
C1394      C1829   1.482       .  S
O1395      C1408   1.276       .  A
O1395     Cd1402   2.083       .  S
O1396      C1414   1.274       .  A
O1396     Cd1405   2.069       .  S
O1397      C1411   1.274       .  A
O1397     Cd1401   2.072       .  S
O1398      C1409   1.273       .  A
O1398     Cd1401   2.062       .  S
Zn1399     O1410   2.005       .  S
Zn1399     O1412   2.033       .  S
Zn1399     O1404   1.939       .  S
O1400      C1411   1.274       .  A
O1400     Cd1405   2.066       .  S
Cd1401     O1403   2.063       .  S
Cd1401     O1404   2.000       .  S
Cd1402     O1406   2.071       .  S
Cd1402     O1415   2.066       .  S
Cd1402     O1404   2.000       .  S
O1403      C1413   1.275       .  A
O1404     Cd1405   1.999       .  S
Cd1405     O1407   2.067       .  S
O1406      C1413   1.275       .  A
C1408      O1412   1.275       .  A
C1408      C1569   1.478       .  S
C1409      C1815   1.472       .  S
C1411      C1787   1.495       .  S
C1413      C1846   1.485       .  S
C1414      O1415   1.275       .  A
C1414      C1804   1.477       .  S
C1416      C1419   1.553       .  S
C1416      C1818   1.548       .  S
C1417      C1422   1.553       .  S
C1417      C1801   1.552       .  S
C1418      C1426   1.379       .  A
C1418      C1421   1.394       .  A
C1419      C1430   1.381       .  A
C1420      C1434   1.381       .  A
C1420      C1423   1.401       .  A
C1421      C1424   1.383       .  A
C1422      C1428   1.382       .  A
C1423      C1431   1.383       .  A
C1424      N1425   1.353       .  A
C1424      H1437   1.082       .  S
N1425      C1426   1.349       .  A
N1425      C1832   1.434       .  S
C1426      H1427   1.082       .  S
C1428      H1438   1.081       .  S
N1429      C1776   1.451       .  S
C1430      H1436   1.081       .  S
C1431      N1432   1.349       .  A
C1431      H1433   1.082       .  S
N1432      C1434   1.349       .  A
N1432      C1843   1.433       .  S
C1434      H1435   1.083       .  S
O1439      C1455   1.275       .  A
O1439     Zn1445   2.017       .  S
C1440      O1456   1.275       .  A
C1440      O1453   1.273       .  A
C1440      C1731   1.479       .  S
O1441     Cd1448   2.078       .  S
O1442      C1460   1.275       .  A
O1443      C1457   1.275       .  A
O1443     Cd1447   2.084       .  S
O1444      C1455   1.276       .  A
O1444     Cd1447   2.068       .  S
Zn1445     O1458   2.044       .  S
Zn1445     O1450   1.946       .  S
O1446     Cd1451   2.082       .  S
Cd1447     O1450   2.005       .  S
Cd1448     O1452   2.061       .  S
O1449      C1459   1.275       .  A
Cd1451     O1453   2.063       .  S
O1452      C1459   1.274       .  A
C1454      O1458   1.277   1_554  A
C1455      C1720   1.492       .  S
C1457      C1773   1.488       .  S
C1459      C1748   1.477       .  S
C1460      O1461   1.273       .  A
C1460      C1759   1.473       .  S
C1462      C1464   1.536       .  S
C1462      C1466   1.533       .  S
C1462      C1465   1.560       .  S
C1462      C1734   1.543       .  S
C1463      C1467   1.529       .  S
C1463      C1469   1.546       .  S
C1463      C1468   1.548       .  S
C1463      C1745   1.542       .  S
C1464      C1472   1.381       .  A
C1464      C1467   1.381       .  A
C1465      C1476   1.383       .  A
C1465      C1468   1.388       .  A
C1466      C1480   1.379       .  A
C1466      C1469   1.404       .  A
C1467      C1470   1.375       .  A
C1468      C1474   1.380       .  A
C1469      C1477   1.386       .  A
C1470      N1471   1.358       .  A
C1470      H1483   1.083       .  S
N1471      C1472   1.363       .  A
N1471      C1762   1.453       .  S
C1472      H1473   1.080       .  S
C1474      N1475   1.368       .  A
C1474      H1484   1.079       .  S
N1475      C1476   1.368       .  A
N1475      C1790   1.475       .  S
C1476      H1482   1.076       .  S
C1477      N1478   1.352       .  A
C1477      H1479   1.082       .  S
N1478      C1480   1.349       .  A
N1478      C1717   1.437       .  S
C1480      H1481   1.083       .  S
O1485      C1501   1.276       .  A
O1485     Zn1491   2.038       .  S
C1486      O1499   1.276       .  A
O1487      C1500   1.273       .  A
O1488      C1506   1.275       .  A
O1489      C1503   1.274       .  A
O1489     Cd1493   2.062       .  S
O1490      C1501   1.276       .  A
Zn1491     O1502   2.048       .  S
O1492      C1503   1.278       .  A
O1492     Cd1497   2.089       .  S
Cd1493     O1495   2.099       .  S
Cd1493     O1496   2.003       .  S
Cd1494     O1498   2.073       .  S
Cd1494     O1507   2.075       .  S
O1495      C1505   1.278       .  A
O1496     Cd1497   2.009       .  S
Cd1497     O1499   2.081       .  S
C1500      O1504   1.278       .  A
C1500      C1675   1.486       .  S
C1501      C1706   1.512       .  S
C1503      C1689   1.493       .  S
C1505      C1650   1.505       .  S
C1506      O1507   1.275       .  A
C1506      C1661   1.481       .  S
C1508      C1510   1.536       .  S
C1508      C1512   1.527       .  S
C1508      C1511   1.556       .  S
C1508      C1678   1.553       .  S
C1509      C1513   1.564       .  S
C1509      C1515   1.553       .  S
C1509      C1514   1.534       .  S
C1509      C1692   1.550       .  S
C1510      C1518   1.374       .  A
C1510      C1513   1.405       .  A
C1511      C1522   1.389       .  A
C1511      C1514   1.397       .  A
C1512      C1526   1.375       .  A
C1512      C1515   1.388       .  A
C1513      C1516   1.392       .  A
C1514      C1520   1.377       .  A
C1515      C1523   1.388       .  A
C1516      N1517   1.357       .  A
C1516      H1529   1.078       .  S
N1517      C1518   1.351       .  A
N1517      C1703   1.446       .  S
C1518      H1519   1.083       .  S
C1520      N1521   1.353       .  A
C1520      H1530   1.082       .  S
N1521      C1522   1.358       .  A
N1521      C1636   1.441       .  S
C1522      H1528   1.081       .  S
C1523      N1524   1.358       .  A
C1523      H1525   1.080       .  S
N1524      C1526   1.356       .  A
N1524      C1664   1.446       .  S
C1526      H1527   1.083       .  S
C1531      C1533   1.542       .  S
C1531      C1534   1.554       .  S
C1531      C1605   1.546       .  S
C1532      C1591   1.549       .  S
C1534      C1545   1.387       .  A
C1535      C1549   1.376       .  A
C1535      C1538   1.384       .  A
C1536      C1539   1.378       .  A
C1538      C1546   1.380       .  A
C1539      N1540   1.353       .  A
C1539      H1552   1.085       .  S
N1540      C1541   1.356   1_565  A
N1540      C1619   1.444       .  S
C1543      H1553   1.081       .  S
N1544      C1545   1.354       .  A
N1544      C1647   1.443       .  S
C1545      H1551   1.081       .  S
C1546      N1547   1.358       .  A
C1546      H1548   1.082       .  S
N1547      C1549   1.353       .  A
N1547      C1580   1.441       .  S
C1549      H1550   1.083       .  S
O1554      C1570   1.272       .  A
O1554     Zn1560   2.010       .  S
C1555      O1571   1.275       .  A
C1555      O1568   1.273       .  A
C1555      C1608   1.494       .  S
O1556      C1569   1.278       .  A
O1556     Cd1563   2.092       .  S
O1557      C1575   1.275       .  A
O1557     Cd1566   2.066       .  S
O1558      C1572   1.273       .  A
O1558     Cd1562   2.066       .  S
O1559      C1570   1.272       .  A
O1559     Cd1562   2.053       .  S
Zn1560     O1571   2.021       .  S
Zn1560     O1573   2.031       .  S
Zn1560     O1565   1.945       .  S
O1561      C1572   1.275       .  A
O1561     Cd1566   2.080       .  S
Cd1562     O1564   2.052       .  S
Cd1562     O1565   1.993       .  S
Cd1563     O1567   2.090       .  S
Cd1563     O1576   2.086       .  S
Cd1563     O1565   2.005       .  S
O1564      C1574   1.273       .  A
O1565     Cd1566   1.999       .  S
Cd1566     O1568   2.058       .  S
O1567      C1574   1.278       .  A
C1569      O1573   1.276       .  A
C1570      C1577   1.469       .  S
C1572      C1633   1.500       .  S
C1574      C1594   1.484       .  S
C1575      O1576   1.277       .  A
C1575      C1622   1.481       .  S
C1577      C1578   1.408       .  A
C1577      C1582   1.408       .  A
C1578      C1579   1.409       .  A
C1578      C1583   1.451       .  S
C1579      C1580   1.414       .  A
C1579      C1586   1.449       .  S
C1580      C1581   1.413       .  A
C1581      C1582   1.407       .  A
C1581      C1584   1.447       .  S
C1582      C1585   1.452       .  S
C1583      N1590   1.157       .  T
C1584      N1589   1.156       .  T
C1585      N1587   1.157       .  T
C1586      N1588   1.157       .  T
C1591      C1592   1.422       .  A
C1591      C1596   1.430       .  A
C1592      C1593   1.411       .  A
C1592      C1597   1.448       .  S
C1593      C1594   1.411       .  A
C1593      C1600   1.454       .  S
C1594      C1595   1.406       .  A
C1595      C1596   1.412       .  A
C1595      C1598   1.452       .  S
C1596      C1599   1.453       .  S
C1598      N1603   1.157       .  T
C1600      N1602   1.157       .  T
C1605      C1606   1.418       .  A
C1605      C1610   1.427       .  A
C1606      C1607   1.411       .  A
C1606      C1611   1.449       .  S
C1607      C1608   1.417       .  A
C1607      C1614   1.453       .  S
C1608      C1609   1.412       .  A
C1609      C1610   1.411       .  A
C1609      C1612   1.454       .  S
C1610      C1613   1.454       .  S
C1611      N1618   1.158       .  T
C1612      N1617   1.158       .  T
C1613      N1615   1.158       .  T
C1614      N1616   1.158       .  T
C1619      C1620   1.413       .  A
C1619      C1624   1.413       .  A
C1620      C1621   1.412       .  A
C1620      C1625   1.449       .  S
C1621      C1622   1.412       .  A
C1621      C1628   1.451       .  S
C1622      C1623   1.410       .  A
C1623      C1624   1.411       .  A
C1623      C1626   1.451       .  S
C1624      C1627   1.449       .  S
C1626      N1631   1.157       .  T
C1627      N1629   1.157       .  T
C1628      N1630   1.157       .  T
C1633      C1634   1.420       .  A
C1633      C1638   1.421       .  A
C1634      C1635   1.414       .  A
C1634      C1639   1.451       .  S
C1635      C1636   1.406       .  A
C1635      C1642   1.447       .  S
C1636      C1637   1.406       .  A
C1637      C1638   1.412       .  A
C1637      C1640   1.450       .  S
C1638      C1641   1.452       .  S
C1639      N1646   1.158       .  T
C1640      N1645   1.157       .  T
C1641      N1643   1.157       .  T
C1642      N1644   1.157       .  T
C1647      C1648   1.406       .  A
C1648      C1649   1.418       .  A
C1648      C1653   1.447       .  S
C1649      C1650   1.421       .  A
C1649      C1656   1.449       .  S
C1651      C1652   1.411       .  A
C1651      C1654   1.450       .  S
C1652      C1655   1.451       .  S
C1653      N1660   1.157       .  T
C1654      N1659   1.157       .  T
C1655      N1657   1.157       .  T
C1656      N1658   1.157       .  T
C1661      C1662   1.408       .  A
C1661      C1666   1.413       .  A
C1662      C1663   1.407       .  A
C1662      C1667   1.451       .  S
C1663      C1664   1.415       .  A
C1663      C1670   1.448       .  S
C1664      C1665   1.413       .  A
C1665      C1666   1.416       .  A
C1665      C1668   1.448       .  S
C1666      C1669   1.450       .  S
C1667      N1674   1.157       .  T
C1668      N1673   1.157       .  T
C1669      N1671   1.157       .  T
C1670      N1672   1.156       .  T
C1675      C1676   1.412       .  A
C1675      C1680   1.407       .  A
C1676      C1677   1.412       .  A
C1676      C1681   1.453       .  S
C1677      C1678   1.419       .  A
C1677      C1684   1.447       .  S
C1678      C1679   1.430       .  A
C1679      C1680   1.413       .  A
C1679      C1682   1.453       .  S
C1680      C1683   1.452       .  S
C1681      N1688   1.157       .  T
C1682      N1687   1.158       .  T
C1683      N1685   1.157       .  T
C1684      N1686   1.157       .  T
C1689      C1690   1.417       .  A
C1689      C1694   1.417       .  A
C1690      C1691   1.413       .  A
C1690      C1695   1.450       .  S
C1691      C1692   1.413       .  A
C1691      C1698   1.450       .  S
C1692      C1693   1.415       .  A
C1693      C1694   1.409       .  A
C1693      C1696   1.451       .  S
C1694      C1697   1.451       .  S
C1695      N1702   1.157       .  T
C1696      N1701   1.158       .  T
C1697      N1699   1.158       .  T
C1698      N1700   1.158       .  T
C1703      C1704   1.411       .  A
C1703      C1708   1.405       .  A
C1704      C1705   1.411       .  A
C1704      C1709   1.451       .  S
C1705      C1706   1.425       .  A
C1705      C1712   1.452       .  S
C1706      C1707   1.427       .  A
C1707      C1708   1.417       .  A
C1707      C1710   1.451       .  S
C1708      C1711   1.450       .  S
C1709      N1716   1.157       .  T
C1710      N1715   1.158       .  T
C1711      N1713   1.157       .  T
C1712      N1714   1.158       .  T
C1717      C1718   1.405       .  A
C1717      C1722   1.407       .  A
C1718      C1719   1.412       .  A
C1718      C1723   1.449       .  S
C1719      C1720   1.420       .  A
C1719      C1726   1.452       .  S
C1720      C1721   1.419       .  A
C1721      C1722   1.409       .  A
C1721      C1724   1.451       .  S
C1722      C1725   1.450       .  S
C1723      N1730   1.157   1_556  T
C1724      N1729   1.157       .  T
C1725      N1727   1.157       .  T
C1726      N1728   1.158   1_556  T
C1731      C1732   1.409       .  A
C1731      C1736   1.410       .  A
C1732      C1733   1.410       .  A
C1732      C1737   1.452       .  S
C1733      C1734   1.425       .  A
C1733      C1740   1.452       .  S
C1734      C1735   1.418       .  A
C1735      C1736   1.409       .  A
C1735      C1738   1.448       .  S
C1736      C1739   1.452       .  S
C1737      N1744   1.157       .  T
C1738      N1743   1.158       .  T
C1739      N1741   1.157       .  T
C1740      N1742   1.158       .  T
C1745      C1746   1.426       .  A
C1745      C1750   1.417       .  A
C1746      C1747   1.409       .  A
C1746      C1751   1.452       .  S
C1747      C1748   1.406       .  A
C1747      C1754   1.452       .  S
C1748      C1749   1.409       .  A
C1749      C1750   1.410       .  A
C1749      C1752   1.449       .  S
C1750      C1753   1.448       .  S
C1751      N1758   1.158       .  T
C1752      N1757   1.157       .  T
C1753      N1755   1.158       .  T
C1754      N1756   1.157       .  T
C1759      C1760   1.405       .  A
C1759      C1764   1.406       .  A
C1760      C1761   1.409       .  A
C1760      C1765   1.454       .  S
C1761      C1762   1.421       .  A
C1761      C1768   1.446       .  S
C1762      C1763   1.422       .  A
C1763      C1764   1.411       .  A
C1763      C1766   1.450       .  S
C1764      C1767   1.452       .  S
C1765      N1772   1.157       .  T
C1766      N1771   1.157       .  T
C1767      N1769   1.157       .  T
C1768      N1770   1.156       .  T
C1773      C1778   1.412       .  A
C1774      C1775   1.412       .  A
C1774      C1779   1.451       .  S
C1775      C1782   1.449       .  S
C1776      C1777   1.417       .  A
C1777      C1778   1.416       .  A
C1779      N1786   1.157       .  T
C1780      N1785   1.157       .  T
C1781      N1783   1.157       .  T
C1782      N1784   1.157       .  T
C1787      C1788   1.409       .  A
C1787      C1792   1.409       .  A
C1788      C1789   1.415       .  A
C1788      C1793   1.455       .  S
C1789      C1790   1.431       .  A
C1789      C1796   1.448       .  S
C1790      C1791   1.433       .  A
C1791      C1792   1.416       .  A
C1791      C1794   1.447       .  S
C1792      C1795   1.456       .  S
C1793      N1800   1.158       .  T
C1794      N1799   1.158       .  T
C1795      N1797   1.157       .  T
C1796      N1798   1.157       .  T
C1801      C1802   1.424       .  A
C1801      C1806   1.431       .  A
C1802      C1803   1.412       .  A
C1802      C1807   1.449       .  S
C1803      C1804   1.407       .  A
C1803      C1810   1.453       .  S
C1804      C1805   1.404       .  A
C1805      C1806   1.409       .  A
C1805      C1808   1.453       .  S
C1806      C1809   1.452       .  S
C1807      N1814   1.157       .  T
C1808      N1813   1.157       .  T
C1809      N1811   1.158       .  T
C1810      N1812   1.157       .  T
C1815      C1816   1.406       .  A
C1815      C1820   1.402       .  A
C1816      C1817   1.411       .  A
C1816      C1821   1.453       .  S
C1817      C1818   1.422       .  A
C1817      C1824   1.447       .  S
C1818      C1819   1.431       .  A
C1819      C1820   1.408       .  A
C1819      C1822   1.453       .  S
C1820      C1823   1.453       .  S
C1821      N1828   1.157       .  T
C1823      N1825   1.157       .  T
C1824      N1826   1.157       .  T
C1829      C1830   1.416       .  A
C1829      C1834   1.415       .  A
C1830      C1831   1.408       .  A
C1830      C1835   1.451       .  S
C1831      C1832   1.404       .  A
C1831      C1838   1.448       .  S
C1832      C1833   1.406       .  A
C1833      C1834   1.410       .  A
C1833      C1836   1.446       .  S
C1834      C1837   1.451       .  S
C1835      N1842   1.157       .  T
C1836      N1841   1.156       .  T
C1837      N1839   1.157       .  T
C1838      N1840   1.157       .  T
C1843      C1844   1.405       .  A
C1843      C1848   1.405       .  A
C1844      C1845   1.410       .  A
C1844      C1849   1.449       .  S
C1845      C1846   1.417       .  A
C1845      C1852   1.451       .  S
C1846      C1847   1.417       .  A
C1847      C1848   1.408       .  A
C1847      C1850   1.452       .  S
C1848      C1851   1.449       .  S
C1849      N1856   1.157       .  T
C1850      N1855   1.158       .  T
C1851      N1853   1.157       .  T
C1852      N1854   1.157       .  T
