geometry optimzed in LAMMPS
_audit_creation_date              2020-11-30 
_audit_creation_method            'lammps2cif' 
_symmetry_space_group_name_H-M    'P1' 
_symmetry_Int_Tables_number       1 
_symmetry_cell_setting            triclinic 
loop_ 
_symmetry_equiv_pos_as_xyz 
  x,y,z 
_cell_length_a                    33.23655813 
_cell_length_b                    32.673853595142525 
_cell_length_c                    32.30098581421523 
_cell_angle_alpha                 87.76351539656211 
_cell_angle_beta                  90.23104934210264 
_cell_angle_gamma                 89.59228367125844 
loop_ 
_atom_site_label 
_atom_site_type_symbol 
_atom_site_fract_x 
_atom_site_fract_y 
_atom_site_fract_z 
_atom_site_charge 
C1          C  0.59656982  0.75702846  0.78399657    -0.02200
In2        In  0.65985617  0.81787814  0.98307208     1.36900
C3          C  0.67912833  0.87476417  0.92701403     0.77900
O4          O  0.59796874  0.82071406  0.96114335    -0.60600
O5          O  0.60688561  0.80553811  0.02581887    -0.51500
C6          C  0.66300121  0.75706920  0.94092501     0.70600
O7          O  0.69581320  0.77540515  0.94588104    -0.46300
C8          C  0.69587802  0.85941974  0.03742837     0.75300
O9          O  0.64423545  0.87199628  0.94190445    -0.58200
O10         O  0.70794850  0.82310002  0.03171153    -0.48300
O11         O  0.70293098  0.84609043  0.93747506    -0.54600
C12         C  0.58237060  0.81164837  0.99593230     0.85400
O13         O  0.64214192  0.75289755  0.97329700    -0.56500
O14         O  0.66321814  0.86989086  0.02063820    -0.59800
In15       In  0.63903280  0.45502761  0.80370811     1.36900
C16         C  0.58457285  0.40332906  0.78285708     0.77900
O17         O  0.65042373  0.41842767  0.86216760    -0.60600
O18         O  0.62160429  0.47699436  0.86555232    -0.51500
C19         C  0.70909326  0.47507731  0.80946534     0.70600
O20         O  0.69595165  0.47404308  0.77264685    -0.46300
C21         C  0.61515660  0.52556166  0.76724328     0.75300
O22         O  0.62086824  0.39766390  0.77236376    -0.58200
O23         O  0.61746196  0.51965628  0.80617158    -0.48300
O24         O  0.57715175  0.43565053  0.80104674    -0.54600
C25         C  0.63644906  0.44573475  0.88465699     0.85400
O26         O  0.70068660  0.44397564  0.83154799    -0.56500
O27         O  0.62675401  0.49569522  0.74646862    -0.59800
C28         C  0.70400913  0.63448243  0.87625826    -0.02200
C29         C  0.83767367  0.53647291  0.80691827    -0.02200
In30       In  0.89583923  0.37358398  0.96948341     1.36900
C31         C  0.91525338  0.42375092  0.02506673     0.77900
O32         O  0.86556475  0.31126425  0.97876592    -0.60600
O33         O  0.92885899  0.31893721  0.98758714    -0.51500
C34         C  0.86075989  0.42011464  0.91892969     0.70600
O35         O  0.87112391  0.38497781  0.90792765    -0.46300
C36         C  0.96180048  0.37922434  0.92733353     0.75300
O37         O  0.89900956  0.39010270  0.03563391    -0.58200
O38         O  0.92920330  0.36832929  0.91161916    -0.48300
O39         O  0.91108316  0.43518747  0.98791684    -0.54600
C40         C  0.90016886  0.29465534  0.98416218     0.85400
O41         O  0.85014305  0.42241363  0.95644940    -0.56500
O42         O  0.96166454  0.38485135  0.96550654    -0.59800
In43       In  0.86042949  0.49191813  0.60562418     1.36900
C44         C  0.80455421  0.54600151  0.60599686     0.77900
O45         O  0.88679239  0.43348291  0.63463282    -0.60600
O46         O  0.88686409  0.48655139  0.66838420    -0.51500
C47         C  0.91928507  0.54113128  0.57897764     0.70600
O48         O  0.88748752  0.55217597  0.59587428    -0.46300
C49         C  0.82532755  0.45113060  0.54715922     0.75300
O50         O  0.83520835  0.55122802  0.62800130    -0.58200
O51         O  0.81194503  0.45295217  0.58359224    -0.48300
O52         O  0.79410937  0.50908426  0.60493749    -0.54600
C53         C  0.90393082  0.45330754  0.66197781     0.85400
O54         O  0.91986314  0.50381204  0.57016257    -0.56500
O55         O  0.85805333  0.46979994  0.54023688    -0.59800
C56         C  0.91251883  0.65005388  0.67163592    -0.02200
In57       In  0.49745054  0.96275640  0.57436038     1.36900
C58         C  0.44781249  0.96784613  0.51475560     0.77900
O59         O  0.47609346  0.02128814  0.60222922    -0.60600
O60         O  0.50884768  0.02375080  0.54505457    -0.51500
C61         C  0.50922286  0.89561980  0.61400287     0.70600
O62         O  0.49412364  0.92558951  0.63320529    -0.46300
C63         C  0.57413274  0.95606058  0.57482745     0.75300
O64         O  0.43576474  0.96341638  0.55197773    -0.58200
O65         O  0.55689501  0.97814220  0.60069872    -0.48300
O66         O  0.48481568  0.96235471  0.50814095    -0.54600
C67         C  0.48856345  0.04293504  0.57107717     0.85400
O68         O  0.49883922  0.89449394  0.57634917    -0.56500
O69         O  0.55165707  0.93878758  0.54947927    -0.59800
C70         C  0.68080481  0.86211711  0.65213890    -0.02200
C71         C  0.81663677  0.76400894  0.56604844    -0.02200
In72       In  0.02457201  0.78876565  0.43005130     1.36900
C73         C  0.08423775  0.82914193  0.39949002     0.77900
O74         O  0.04271731  0.74567569  0.38133037    -0.60600
O75         O  0.98293825  0.77088027  0.38243257    -0.51500
C76         C  0.96865902  0.77311456  0.48307465     0.70600
O77         O  0.00494152  0.76225347  0.49251746    -0.46300
C78         C  0.00832559  0.85986581  0.45636677     0.75300
O79         O  0.04891239  0.83117642  0.38507639    -0.58200
O80         O  0.02461220  0.83338635  0.48068521    -0.48300
O81         O  0.09118739  0.80173955  0.42830393    -0.54600
C82         C  0.01121304  0.75690588  0.36123149     0.85400
O83         O  0.96227921  0.78090234  0.44524583    -0.56500
O84         O  0.00341451  0.85041060  0.41923611    -0.59800
C85         C  0.82177358  0.35109332  0.78778759    -0.02200
In86       In  0.92982779  0.18225728  0.94911776     1.36900
C87         C  0.96768488  0.14668040  0.89088274     0.77900
O88         O  0.94598890  0.24135220  0.97228750    -0.60600
O89         O  0.88403045  0.22262846  0.97991624    -0.51500
C90         C  0.90107812  0.23332406  0.89328343     0.70600
O91         O  0.93822348  0.23261797  0.90328556    -0.46300
C92         C  0.95437380  0.15481648  0.02143393     0.75300
O93         O  0.93120678  0.13659807  0.89829741    -0.58200
O94         O  0.91791771  0.14907274  0.01037376    -0.48300
O95         O  0.98465513  0.16860520  0.91723451    -0.54600
C96         C  0.90991297  0.25113649  0.98117820     0.85400
O97         O  0.87953897  0.20363707  0.90792798    -0.56500
O98         O  0.97854908  0.16226692  0.99210357    -0.59800
In99       In  0.50005655  0.31748745  0.79296783     1.36900
C100        C  0.45057842  0.32994296  0.73623258     0.77900
O101        O  0.45802575  0.30695771  0.84607310    -0.60600
O102        O  0.49219593  0.36192640  0.84339901    -0.51500
C103        C  0.54326061  0.27187599  0.83631816     0.70600
O104        O  0.55583003  0.28404837  0.80128822    -0.46300
C105        C  0.55317752  0.37338450  0.77990967     0.75300
O106        O  0.44350453  0.30092146  0.76171792    -0.58200
O107        O  0.56004352  0.33691095  0.76981683    -0.48300
O108        O  0.48659739  0.33257798  0.72565564    -0.54600
C109        C  0.47199851  0.33662771  0.86513567     0.85400
O110        O  0.50631225  0.26468967  0.83871029    -0.56500
O111        O  0.51813783  0.38129976  0.79325937    -0.59800
C112        C  0.68923922  0.26195336  0.87900780    -0.02200
In113      In  0.77246292  0.36282774  0.48296537     1.36900
C114        C  0.80450190  0.42630094  0.51738151     0.77900
O115        O  0.80687208  0.30485029  0.47171743    -0.60600
O116        O  0.83239713  0.36362998  0.45595013    -0.51500
C117        C  0.78095351  0.32092542  0.55140862     0.70600
O118        O  0.76868416  0.35726790  0.55273677    -0.46300
C119        C  0.72172232  0.38468138  0.42044456     0.75300
O120        O  0.76916992  0.41417275  0.52486574    -0.58200
O121        O  0.74518596  0.35451236  0.41941397    -0.48300
O122        O  0.82148990  0.41048349  0.48678354    -0.54600
C123        C  0.83755186  0.32538761  0.46184922     0.85400
O124        O  0.76920651  0.30298804  0.51951824    -0.56500
O125        O  0.71732318  0.39774184  0.45629833    -0.59800
C126        C  0.91301545  0.25913229  0.65145643    -0.02200
C127        C  0.59661419  0.14099093  0.78058298    -0.02200
In128      In  0.70919379  0.97137369  0.85097044     1.36900
C129        C  0.77510283  0.99640667  0.88262736     0.77900
O130        O  0.69176271  0.92676546  0.80230894    -0.60600
O131        O  0.67481205  0.98838312  0.79286335    -0.51500
C132        C  0.66215601  0.02988230  0.87311499     0.70600
O133        O  0.65724290  0.99342442  0.88658894    -0.46300
C134        C  0.69136253  0.90953332  0.90097672     0.75300
O135        O  0.75764954  0.01954769  0.85619407    -0.58200
O136        O  0.71999283  0.90760834  0.87548298    -0.48300
O137        O  0.77154730  0.95898948  0.87569954    -0.54600
C138        C  0.66578185  0.95174251  0.78811646     0.85400
O139        O  0.69455022  0.03722771  0.85419362    -0.56500
O140        O  0.67392472  0.94390256  0.90279057    -0.59800
In141      In  0.49742910  0.16685678  0.56433141     1.36900
C142        C  0.55527957  0.21561090  0.53990570     0.77900
O143        O  0.46899381  0.10992295  0.59340745    -0.60600
O144        O  0.49582793  0.10706497  0.53332270    -0.51500
C145        C  0.55313967  0.13195706  0.60530238     0.70600
O146        O  0.52782324  0.15447041  0.62424930    -0.46300
C147        C  0.42874640  0.19965960  0.54015352     0.75300
O148        O  0.54214579  0.21717209  0.57678587    -0.58200
O149        O  0.43624752  0.19364049  0.57867700    -0.48300
O150        O  0.53390390  0.19554349  0.51522706    -0.54600
C151        C  0.48239866  0.08761078  0.56522743     0.85400
O152        O  0.55064512  0.13048417  0.56619758    -0.56500
O153        O  0.45804818  0.19413070  0.51620249    -0.59800
C154        C  0.69432715  0.04634230  0.65949193    -0.02200
C155        C  0.84188813  0.11205951  0.57100564    -0.02200
In156      In  0.96037009  0.96676068  0.45759070     1.36900
C157        C  0.99238969  0.89786478  0.46866670     0.77900
O158        O  0.92330127  0.95373162  0.40068379    -0.60600
O159        O  0.98702321  0.95737268  0.39466555    -0.51500
C160        C  0.92820038  0.97810114  0.52886123     0.70600
O161        O  0.96522152  0.98529069  0.52287656    -0.46300
C162        C  0.95945850  0.04211501  0.43462452     0.75300
O163        O  0.95459552  0.90245848  0.46737628    -0.58200
O164        O  0.92770074  0.02166732  0.43904021    -0.48300
O165        O  0.01412271  0.92955660  0.47119682    -0.54600
C166        C  0.95350306  0.95354450  0.37660862     0.85400
O167        O  0.91004335  0.96030507  0.49989946    -0.56500
O168        O  0.99174060  0.02580008  0.44923696    -0.59800
C169        C  0.41191070  0.76436573  0.77483578    -0.02200
In170      In  0.47869616  0.85587763  0.96737231     1.36900
C171        C  0.48728610  0.91800815  0.01461131     0.77900
O172        O  0.51737129  0.79973596  0.97062890    -0.60600
O173        O  0.52215610  0.84054463  0.01971019    -0.51500
C174        C  0.41338751  0.82926229  0.93643013     0.70600
O175        O  0.41677373  0.86701825  0.94167976    -0.46300
C176        C  0.51063641  0.86407046  0.89279641     0.75300
O177        O  0.46119636  0.89065269  0.02238163    -0.58200
O178        O  0.52551678  0.84160351  0.92086563    -0.48300
O179        O  0.50439073  0.91655975  0.97988354    -0.54600
C180        C  0.53869965  0.81312778  0.99943978     0.85400
O181        O  0.43252969  0.80662366  0.96267564    -0.56500
O182        O  0.48089446  0.88540704  0.90329406    -0.59800
In183      In  0.52310696  0.57921820  0.77176588     1.36900
C184        C  0.59381138  0.56169646  0.74913969     0.77900
O185        O  0.54017318  0.61141866  0.82748979    -0.60600
O186        O  0.52509744  0.54777701  0.83469698    -0.51500
C187        C  0.45733461  0.61893474  0.77908464     0.70600
O188        O  0.46252777  0.60032936  0.74624334    -0.46300
C189        C  0.48210995  0.51718922  0.75171999     0.75300
O190        O  0.58894497  0.59258942  0.77046530    -0.58200
O191        O  0.48516932  0.54796027  0.72702314    -0.48300
O192        O  0.56598636  0.55644810  0.72360653    -0.54600
C193        C  0.53553865  0.58061610  0.85164200     0.85400
O194        O  0.48918847  0.63306030  0.79379226    -0.56500
O195        O  0.50311202  0.51698485  0.78483720    -0.59800
C196        C  0.31473229  0.63108839  0.86642282    -0.02200
In197      In  0.36204976  0.98017548  0.42790490     1.36900
C198        C  0.39091840  0.94457151  0.36863632     0.77900
O199        O  0.37433825  0.04535850  0.41696168    -0.60600
O200        O  0.31231388  0.02976197  0.42186989    -0.51500
C201        C  0.33341380  0.92662118  0.48093373     0.70600
O202        O  0.31128599  0.95568702  0.46591113    -0.46300
C203        C  0.42041336  0.97931259  0.48182141     0.75300
O204        O  0.36482852  0.92569337  0.38974281    -0.58200
O205        O  0.38531817  0.98985001  0.48964885    -0.48300
O206        O  0.38577253  0.98257852  0.36420797    -0.54600
C207        C  0.33846475  0.05792817  0.41829099     0.85400
O208        O  0.36546713  0.92026641  0.46176511    -0.56500
O209        O  0.42836486  0.97679889  0.44405794    -0.59800
C210        C  0.30340209  0.86230090  0.64984956    -0.02200
C211        C  0.17196039  0.54827417  0.78245616    -0.02200
In212      In  0.05615442  0.39265733  0.85582160     1.36900
C213        C  0.99645458  0.38560894  0.90241334     0.77900
O214        O  0.03388757  0.34312196  0.81559455    -0.60600
O215        O  0.06551614  0.32783130  0.87259583    -0.51500
C216        C  0.04866943  0.47136834  0.85284407     0.70600
O217        O  0.05708377  0.45216220  0.88678548    -0.46300
C218        C  0.13053236  0.41258896  0.84755962     0.75300
O219        O  0.99255345  0.38940059  0.86336481    -0.58200
O220        O  0.10702791  0.41885272  0.81702079    -0.48300
O221        O  0.03160791  0.38772883  0.91800934    -0.54600
C222        C  0.04525414  0.31555245  0.84232153     0.85400
O223        O  0.03776307  0.44924750  0.82288551    -0.56500
O224        O  0.11808654  0.38714505  0.87496615    -0.59800
In225      In  0.01193430  0.43918916  0.62299598     1.36900
C226        C  0.97256576  0.38912612  0.58073709     0.77900
O227        O  0.96796063  0.47993932  0.65080306    -0.60600
O228        O  0.96594125  0.41564313  0.66843353    -0.51500
C229        C  0.07156633  0.47370614  0.65162532     0.70600
O230        O  0.07841331  0.45200047  0.62117653    -0.46300
C231        C  0.02939706  0.47922745  0.55575067     0.75300
O232        O  0.96190178  0.42596151  0.58334246    -0.58200
O233        O  0.04376146  0.44374088  0.56254374    -0.48300
O234        O  0.00356408  0.37739481  0.60120733    -0.54600
C235        C  0.94768998  0.45002834  0.66560829     0.85400
O236        O  0.04621889  0.45862099  0.67711077    -0.56500
O237        O  0.00542954  0.49240080  0.58241089    -0.59800
C238        C  0.08670774  0.65248801  0.65581152    -0.02200
C239        C  0.17719797  0.78338030  0.54899550    -0.02200
In240      In  0.12585444  0.94145907  0.39465704     1.36900
C241        C  0.06547121  0.98500018  0.36551981     0.77900
O242        O  0.17953525  0.94182057  0.35439937    -0.60600
O243        O  0.15144598  0.99833648  0.36550378    -0.51500
C244        C  0.12747323  0.93171898  0.47448782     0.70600
O245        O  0.09509858  0.93846583  0.45488129    -0.46300
C246        C  0.10956824  0.86391135  0.38908296     0.75300
O247        O  0.07503301  0.95211238  0.34868995    -0.58200
O248        O  0.13863603  0.87435349  0.41116349    -0.48300
O249        O  0.08258228  0.99146149  0.39966964    -0.54600
C250        C  0.16994558  0.97688702  0.34034686     0.85400
O251        O  0.15932379  0.94080932  0.45481619    -0.56500
O252        O  0.09649449  0.89108665  0.36364106    -0.59800
In253      In  0.39432337  0.43732609  0.75809878     1.36900
C254        C  0.45234746  0.48631136  0.74627313     0.77900
O255        O  0.36758607  0.48172047  0.80254155    -0.60600
O256        O  0.40211646  0.43003852  0.82591228    -0.51500
C257        C  0.33161497  0.40064529  0.75341079     0.70600
O258        O  0.35173197  0.40090974  0.72029517    -0.46300
C259        C  0.42890556  0.36831251  0.74156781     0.75300
O260        O  0.45508023  0.45419876  0.76859165    -0.58200
O261        O  0.41973050  0.37852473  0.77788726    -0.48300
O262        O  0.42025490  0.49172451  0.72468992    -0.54600
C263        C  0.38263473  0.46234688  0.83374863     0.85400
O264        O  0.32789998  0.43537501  0.76869965    -0.56500
O265        O  0.42090230  0.39432627  0.71252979    -0.59800
C266        C  0.32020075  0.26281294  0.85529484    -0.02200
C267        C  0.18438590  0.35562704  0.75603777    -0.02200
In268      In  0.04531653  0.19235345  0.82354193     1.36900
C269        C  0.10774703  0.18416084  0.87323247     0.77900
O270        O  0.05130460  0.24581160  0.86487361    -0.60600
O271        O  0.02068183  0.25663041  0.80816079    -0.51500
C272        C  0.07980183  0.21933348  0.75988027     0.70600
O273        O  0.09321624  0.18595753  0.77599878    -0.46300
C274        C  0.98789404  0.14406787  0.85097328     0.75300
O275        O  0.10927941  0.17072775  0.83700968    -0.58200
O276        O  0.98051313  0.17224564  0.82443328    -0.48300
O277        O  0.07314137  0.19497829  0.88505424    -0.54600
C278        C  0.03779415  0.27176517  0.83865869     0.85400
O279        O  0.04197558  0.22226680  0.76012819    -0.56500
O280        O  0.02360652  0.13144342  0.85008905    -0.59800
C281        C  0.41340966  0.12746612  0.76511508    -0.02200
In282      In  0.54941161  0.93307777  0.81795073     1.36900
C283        C  0.53010947  0.86927729  0.85328827     0.77900
O284        O  0.59532925  0.96558336  0.77643293    -0.60600
O285        O  0.61098502  0.90832392  0.80427216    -0.51500
C286        C  0.48258713  0.96396175  0.79079660     0.70600
O287        O  0.48489879  0.94561616  0.82565187    -0.46300
C288        C  0.54528462  0.98167156  0.88075012     0.75300
O289        O  0.56672196  0.87846734  0.85417336    -0.58200
O290        O  0.55930279  0.94614820  0.88543484    -0.48300
O291        O  0.51038372  0.87940448  0.82079457    -0.54600
C292        C  0.62305288  0.94034388  0.78587451     0.85400
O293        O  0.51106046  0.95645240  0.76556461    -0.56500
O294        O  0.53716869  0.99279475  0.84448156    -0.59800
In295      In  0.94572625  0.34304314  0.47578507     1.36900
C296        C  0.92667738  0.40928373  0.43221779     0.77900
O297        O  0.90170723  0.31488562  0.43528935    -0.60600
O298        O  0.89421275  0.30790062  0.50042421    -0.51500
C299        C  0.01818593  0.31443550  0.47199308     0.70600
O300        O  0.01207638  0.35256638  0.46928636    -0.46300
C301        C  0.95412443  0.36542138  0.54982170     0.75300
O302        O  0.93381869  0.37515206  0.41671576    -0.58200
O303        O  0.96745359  0.33083325  0.54038034    -0.48300
O304        O  0.93233977  0.41092910  0.47052948    -0.54600
C305        C  0.87805682  0.30962459  0.46512396     0.85400
O306        O  0.98807470  0.29292038  0.46341168    -0.56500
O307        O  0.92943303  0.38275160  0.52508532    -0.59800
C308        C  0.09577703  0.26923169  0.62434355    -0.02200
In309      In  0.37341017  0.14228791  0.47345209     1.36900
C310        C  0.38802833  0.20015985  0.52212956     0.77900
O311        O  0.31436729  0.11511579  0.45373767    -0.60600
O312        O  0.35797792  0.12643871  0.40825123    -0.51500
C313        C  0.36764277  0.07779449  0.51993671     0.70600
O314        O  0.40178948  0.08822827  0.50592412    -0.46300
C315        C  0.44272875  0.14019183  0.43725222     0.75300
O316        O  0.36519989  0.17215092  0.53485491    -0.58200
O317        O  0.41563251  0.16590681  0.42648121    -0.48300
O318        O  0.38378319  0.20915107  0.48398653    -0.54600
C319        C  0.33143184  0.10241035  0.42198920     0.85400
O320        O  0.33845652  0.10173592  0.51188374    -0.56500
O321        O  0.43526705  0.11707770  0.46860519    -0.59800
C322        C  0.29664438  0.03810386  0.64993287    -0.02200
C323        C  0.18087714  0.13737221  0.53492276    -0.02200
In324      In  0.01224141  0.09233229  0.34724804     1.36900
C325        C  0.96157002  0.07380265  0.40242438     0.77900
O326        O  0.01042954  0.14987528  0.30290288    -0.60600
O327        O  0.99226613  0.09394807  0.28015447    -0.51500
C328        C  0.06621586  0.10909062  0.40556298     0.70600
O329        O  0.03588340  0.13194260  0.39768608    -0.46300
C330        C  0.04269141  0.01807337  0.34519594     0.75300
O331        O  0.95685644  0.06273698  0.36585984    -0.58200
O332        O  0.00572910  0.02365161  0.35086612    -0.48300
O333        O  0.98125639  0.10598403  0.40662848    -0.54600
C334        C  0.00115187  0.13046288  0.27141241     0.85400
O335        O  0.07246008  0.08285569  0.37901728    -0.56500
O336        O  0.06142919  0.04952382  0.33282755    -0.59800
C337        C  0.81933479  0.76993527  0.37907044    -0.02200
In338      In  0.98869754  0.83524982  0.27368215     1.36900
C339        C  0.94735636  0.84603012  0.20833317     0.77900
O340        O  0.03673568  0.79592993  0.30478167    -0.60600
O341        O  0.97901882  0.77163454  0.29703965    -0.51500
C342        C  0.93539064  0.86179669  0.32875910     0.70600
O343        O  0.97248414  0.85876574  0.33706212    -0.46300
C344        C  0.04351311  0.89208939  0.25164065     0.75300
O345        O  0.93170335  0.82481112  0.23723177    -0.58200
O346        O  0.03871692  0.85927859  0.23295159    -0.48300
O347        O  0.98438771  0.83884449  0.20378346    -0.54600
C348        C  0.01109283  0.77046348  0.31747242     0.85400
O349        O  0.92710533  0.85689923  0.29154484    -0.56500
O350        O  0.02070446  0.89569944  0.28252617    -0.59800
In351      In  0.63239762  0.97903208  0.49658620     1.36900
C352        C  0.61682192  0.95596212  0.56764113     0.77900
O353        O  0.65840694  0.03764253  0.51272238    -0.60600
O354        O  0.59569604  0.03589571  0.49470769    -0.51500
C355        C  0.66807236  0.96173379  0.43296420     0.70600
O356        O  0.68695698  0.95595888  0.46713710    -0.46300
C357        C  0.57722247  0.93080684  0.46871274     0.75300
O358        O  0.63288346  0.99035184  0.56352089    -0.58200
O359        O  0.57087480  0.96874120  0.47325313    -0.48300
O360        O  0.63045102  0.92907130  0.54457185    -0.54600
C361        C  0.62554216  0.05695504  0.50593623     0.85400
O362        O  0.64280806  0.99067345  0.43134277    -0.56500
O363        O  0.61017015  0.91677772  0.48235332    -0.59800
C364        C  0.68043814  0.85772143  0.30419731    -0.02200
In365      In  0.83234993  0.57585340  0.49090208     1.36900
C366        C  0.80094825  0.52130981  0.44679130     0.77900
O367        O  0.88582474  0.53177760  0.48297286    -0.60600
O368        O  0.89634990  0.59499338  0.48787862    -0.51500
C369        C  0.83893645  0.62837014  0.43274004     0.70600
O370        O  0.80622081  0.60931957  0.43581113    -0.46300
C371        C  0.80228519  0.57019565  0.56685241     0.75300
O372        O  0.78459101  0.55608830  0.45033266    -0.58200
O373        O  0.82969068  0.59488655  0.55688495    -0.48300
O374        O  0.83238444  0.51356890  0.46808052    -0.54600
C375        C  0.91106957  0.56054302  0.48096622     0.85400
O376        O  0.85624531  0.63446713  0.46657980    -0.56500
O377        O  0.78406441  0.55655861  0.53656973    -0.59800
C378        C  0.92083605  0.64755904  0.28181799    -0.02200
C379        C  0.60704198  0.75214176  0.16885973    -0.02200
In380      In  0.72730759  0.93520545  0.12503381     1.36900
C381        C  0.71516641  0.88845559  0.06322676     0.77900
O382        O  0.67100612  0.95416000  0.09176363    -0.60600
O383        O  0.67262442  0.96131502  0.15724276    -0.51500
C384        C  0.70557243  0.87737396  0.16996104     0.70600
O385        O  0.73951063  0.87344572  0.15322029    -0.46300
C386        C  0.78521589  0.98360143  0.10164345     0.75300
O387        O  0.74200954  0.87919100  0.08947375    -0.58200
O388        O  0.75720784  0.99745056  0.12335110    -0.48300
O389        O  0.70133979  0.92439855  0.06418241    -0.54600
C390        C  0.65169648  0.96173014  0.12424367     0.85400
O391        O  0.69884615  0.91243659  0.18346105    -0.56500
O392        O  0.79253652  0.94647857  0.10964348    -0.59800
In393      In  0.64126915  0.44051310  0.01119871     1.36900
C394        C  0.61081469  0.51302049  0.01563621     0.77900
O395        O  0.61878777  0.46618980  0.95086407    -0.60600
O396        O  0.66255797  0.41815670  0.94964550    -0.51500
C397        C  0.69597566  0.45468373  0.06207848     0.70600
O398        O  0.66349135  0.44079456  0.07628432    -0.46300
C399        C  0.58636348  0.38731287  0.01487620     0.75300
O400        O  0.64363987  0.50763864  0.99697903    -0.58200
O401        O  0.58645186  0.41655826  0.03887023    -0.48300
O402        O  0.59692690  0.48249035  0.03568780    -0.54600
C403        C  0.63929716  0.44277135  0.92948883     0.85400
O404        O  0.70600261  0.44093294  0.02744645    -0.56500
O405        O  0.61875490  0.37975678  0.99650811    -0.59800
C406        C  0.70773287  0.63074576  0.06386766    -0.02200
C407        C  0.84416741  0.54423007  0.14994626    -0.02200
In408      In  0.02502155  0.44343370  0.06684103     1.36900
C409        C  0.08301161  0.45166153  0.01349145     0.77900
O410        O  0.03437333  0.38460100  0.10748646    -0.60600
O411        O  0.02584435  0.38162062  0.04233446    -0.51500
C412        C  0.00905485  0.50399315  0.11141293     0.70600
O413        O  0.01679302  0.51028840  0.07366365    -0.46300
C414        C  0.94970387  0.43886741  0.04629844     0.75300
O415        O  0.08923156  0.44510256  0.05188541    -0.58200
O416        O  0.96237457  0.42263781  0.07971304    -0.48300
O417        O  0.04699070  0.45792912  0.00280035    -0.54600
C418        C  0.03035701  0.36221921  0.07651259     0.85400
O419        O  0.02538666  0.47214757  0.12806658    -0.56500
O420        O  0.97434850  0.46118408  0.02653604    -0.59800
In421      In  0.77002192  0.45376605  0.35248518     1.36900
C422        C  0.71281017  0.40991209  0.38216159     0.77900
O423        O  0.78988109  0.51663683  0.32934658    -0.60600
O424        O  0.79365395  0.46854631  0.28819093    -0.51500
C425        C  0.82631561  0.39980134  0.34802923     0.70600
O426        O  0.81742291  0.41581277  0.38185618    -0.46300
C427        C  0.78707779  0.49436155  0.41608601     0.75300
O428        O  0.72857554  0.39955587  0.34878423    -0.58200
O429        O  0.75909828  0.50546949  0.39126141    -0.48300
O430        O  0.70953353  0.44811135  0.38459023    -0.54600
C431        C  0.81040381  0.49972802  0.30216746     0.85400
O432        O  0.80528159  0.41028237  0.31685016    -0.56500
O433        O  0.80493541  0.46085455  0.40952448    -0.59800
C434        C  0.91329225  0.27220066  0.29255645    -0.02200
C435        C  0.81548092  0.36102195  0.15329101    -0.02200
In436      In  0.00221516  0.24226015  0.07448418     1.36900
C437        C  0.96441062  0.17393393  0.06046653     0.77900
O438        O  0.01659719  0.30066279  0.04442185    -0.60600
O439        O  0.03203391  0.29288806  0.10974266    -0.51500
C440        C  0.94332027  0.28572781  0.09047453     0.70600
O441        O  0.95029078  0.27317313  0.05449156    -0.46300
C442        C  0.05570674  0.22729548  0.02040275     0.75300
O443        O  0.94587776  0.20672204  0.06603970    -0.58200
O444        O  0.06216154  0.21814356  0.05871180    -0.48300
O445        O  0.99954957  0.17245342  0.07625160    -0.54600
C446        C  0.02773423  0.31710698  0.07754430     0.85400
O447        O  0.96441293  0.27058201  0.12098396    -0.56500
O448        O  0.02112956  0.24140266  0.01053715    -0.59800
C449        C  0.83932581  0.12612193  0.37886824    -0.02200
In450      In  0.93625104  0.95849307  0.24706884     1.36900
C451        C  0.99203052  0.00269642  0.21554594     0.77900
O452        O  0.97758117  0.95775235  0.30525574    -0.60600
O453        O  0.91651501  0.94612387  0.31339298    -0.51500
C454        C  0.88597503  0.01404071  0.26152888     0.70600
O455        O  0.91226374  0.02103270  0.23436839    -0.46300
C456        C  0.93505851  0.88925116  0.20607410     0.75300
O457        O  0.95730885  0.00203181  0.19902001    -0.58200
O458        O  0.90459500  0.90169246  0.22495687    -0.48300
O459        O  0.99839817  0.97891152  0.24685425    -0.54600
C460        C  0.94947258  0.95197654  0.33076751     0.85400
O461        O  0.87547319  0.97722059  0.26627085    -0.56500
O462        O  0.96156886  0.91576227  0.20102178    -0.59800
In463      In  0.48291294  0.33181074  0.99094628     1.36900
C464        C  0.54954448  0.36754917  0.00546761     0.77900
O465        O  0.45553449  0.30920048  0.93275645    -0.60600
O466        O  0.49670431  0.35938357  0.92900391    -0.51500
C467        C  0.51634987  0.27562205  0.03415142     0.70600
O468        O  0.50463192  0.26737835  0.99811370    -0.46300
C469        C  0.42648922  0.38351622  0.99732779     0.75300
O470        O  0.51907619  0.37200176  0.02787268    -0.58200
O471        O  0.41837907  0.34840261  0.98496585    -0.48300
O472        O  0.54503820  0.34723218  0.97327282    -0.54600
C473        C  0.47333224  0.33604702  0.91020798     0.85400
O474        O  0.49301601  0.29920312  0.05267163    -0.56500
O475        O  0.45889448  0.38714598  0.01669327    -0.59800
C476        C  0.68648719  0.26779283  0.05983098    -0.02200
In477      In  0.63798401  0.17688306  0.48191374     1.36900
C478        C  0.60242123  0.17358095  0.41089259     0.77900
O479        O  0.65269967  0.12147019  0.52120800    -0.60600
O480        O  0.59850983  0.12178167  0.48503430    -0.51500
C481        C  0.70020975  0.15314122  0.44533590     0.70600
O482        O  0.68923805  0.19011216  0.43902374    -0.46300
C483        C  0.59679497  0.22508321  0.52745405     0.75300
O484        O  0.59101231  0.15404122  0.44311887    -0.58200
O485        O  0.62506134  0.20414537  0.54385049    -0.48300
O486        O  0.62931531  0.20009033  0.41555997    -0.54600
C487        C  0.62417600  0.10126051  0.50622439     0.85400
O488        O  0.69586370  0.14031899  0.48217904    -0.56500
O489        O  0.60293392  0.23492440  0.49019187    -0.59800
C490        C  0.69898539  0.04882482  0.30326608    -0.02200
C491        C  0.60326381  0.13744305  0.16536051    -0.02200
In492      In  0.74367114  0.02729437  0.99683424     1.36900
C493        C  0.78652307  0.99814444  0.05811113     0.77900
O494        O  0.68282562  0.00051277  0.98676117    -0.60600
O495        O  0.69420260  0.06216978  0.96417998    -0.51500
C496        C  0.70330703  0.06036747  0.05388954     0.70600
O497        O  0.72613170  0.08269704  0.03036760    -0.46300
C498        C  0.77495065  0.00822397  0.92612113     0.75300
O499        O  0.76999137  0.97546058  0.03206673    -0.58200
O500        O  0.77658747  0.04514584  0.93767805    -0.48300
O501        O  0.79029013  0.03568550  0.04673442    -0.54600
C502        C  0.66844966  0.03458686  0.97266760     0.85400
O503        O  0.70476005  0.02187905  0.04976725    -0.56500
O504        O  0.76293881  0.98203814  0.95312502    -0.59800
C505        C  0.20033684  0.37174726  0.13992893    -0.02200
In506      In  0.14800632  0.25595412  0.94893323     1.36900
C507        C  0.08775554  0.22930062  0.99034555     0.77900
O508        O  0.14432461  0.31009228  0.90906443    -0.60600
O509        O  0.20222658  0.29432241  0.93750111    -0.51500
C510        C  0.15061509  0.30585055  0.00632771     0.70600
O511        O  0.12016122  0.30526420  0.98231380    -0.46300
C512        C  0.14178972  0.20225767  0.89394780     0.75300
O513        O  0.12311099  0.21630811  0.99906995    -0.58200
O514        O  0.14712201  0.23953371  0.88448665    -0.48300
O515        O  0.08329879  0.25139828  0.95714158    -0.54600
C516        C  0.17896210  0.32170239  0.92092229     0.85400
O517        O  0.17760857  0.27757499  0.00347784    -0.56500
O518        O  0.15346660  0.19054473  0.93000210    -0.59800
In519      In  0.37045977  0.48746507  0.95638465     1.36900
C520        C  0.40477960  0.41955010  0.98370133     0.77900
O521        O  0.40246462  0.46125487  0.90392668    -0.60600
O522        O  0.35068115  0.49843648  0.88933507    -0.51500
C523        C  0.31321656  0.46548676  0.00072830     0.70600
O524        O  0.33745301  0.48960989  0.01657873    -0.46300
C525        C  0.41843275  0.54723900  0.97128834     0.75300
O526        O  0.37730253  0.41926886  0.95684159    -0.58200
O527        O  0.39627191  0.54936154  0.93950519    -0.48300
O528        O  0.41555233  0.45420559  0.99467224    -0.54600
C529        C  0.37839904  0.47511043  0.87651964     0.85400
O530        O  0.30552013  0.47399739  0.96295349    -0.56500
O531        O  0.41065273  0.51911658  0.99722765    -0.59800
C532        C  0.32466783  0.28893442  0.04332525    -0.02200
C533        C  0.42600884  0.15486120  0.12958260    -0.02200
In534      In  0.54651770  0.05809039  0.97150491     1.36900
C535        C  0.54072182  0.00916955  0.91364443     0.77900
O536        O  0.60983188  0.07789297  0.96111578    -0.60600
O537        O  0.59974200  0.01730782  0.98558499    -0.51500
C538        C  0.49231528  0.11286288  0.97107442     0.70600
O539        O  0.48328461  0.07680282  0.96188802    -0.46300
C540        C  0.52778327  0.05638692  0.04843496     0.75300
O541        O  0.54153416  0.04756522  0.90643498    -0.58200
O542        O  0.55575324  0.07828922  0.03419946    -0.48300
O543        O  0.53749683  0.99633928  0.95088301    -0.54600
C544        C  0.62486405  0.04330705  0.97219575     0.85400
O545        O  0.52872586  0.12315212  0.96412115    -0.56500
O546        O  0.50993028  0.03442144  0.02289274    -0.59800
In547      In  0.52960440  0.11378918  0.35492138     1.36900
C548        C  0.47747419  0.13412848  0.41138850     0.77900
O549        O  0.52302951  0.05792720  0.39531450    -0.60600
O550        O  0.55151485  0.05213116  0.33635740    -0.51500
C551        C  0.48023182  0.10161861  0.29684428     0.70600
O552        O  0.51340500  0.08321058  0.29686949    -0.46300
C553        C  0.58805161  0.15993929  0.37184585     0.75300
O554        O  0.48040541  0.15296366  0.37688088    -0.58200
O555        O  0.59304913  0.12273941  0.36545254    -0.48300
O556        O  0.50343087  0.10636926  0.41877803    -0.54600
C557        C  0.53704675  0.03447275  0.36846788     0.85400
O558        O  0.47961875  0.13501149  0.31472267    -0.56500
O559        O  0.55795252  0.17625785  0.35454928    -0.59800
C560        C  0.32677316  0.05414237  0.25578804    -0.02200
In561      In  0.92947900  0.48273030  0.33473910     1.36900
C562        C  0.98143738  0.53608341  0.34925289     0.77900
O563        O  0.87849034  0.47760516  0.28686371    -0.60600
O564        O  0.87229292  0.52070772  0.33285688    -0.51500
C565        C  0.98443444  0.42479999  0.31534185     0.70600
O566        O  0.97036069  0.45045262  0.28811175    -0.46300
C567        C  0.91623901  0.44396743  0.40541029     0.75300
O568        O  0.94567032  0.54023664  0.36097258    -0.58200
O569        O  0.93630609  0.47637384  0.40470101    -0.48300
O570        O  0.98714328  0.51358114  0.31911899    -0.54600
C571        C  0.85516092  0.50174505  0.30477707     0.85400
O572        O  0.96750566  0.42651876  0.34953569    -0.56500
O573        O  0.89748127  0.43768964  0.37274482    -0.59800
C574        C  0.09566230  0.29789740  0.27480367    -0.02200
C575        C  0.20459243  0.16600152  0.35331983    -0.02200
In576      In  0.06223101  0.09859045  0.19413772     1.36900
C577        C  0.11429618  0.07144782  0.14725833     0.77900
O578        O  0.99816836  0.12141995  0.19923942    -0.60600
O579        O  0.04352637  0.16003602  0.21959310    -0.51500
C580        C  0.10089737  0.10149005  0.26252367     0.70600
O581        O  0.08425078  0.06860640  0.25258429    -0.46300
C582        C  0.02050425  0.03346789  0.20353412     0.75300
O583        O  0.12353869  0.10362512  0.16505110    -0.58200
O584        O  0.01292034  0.05964744  0.17456655    -0.48300
O585        O  0.07894551  0.07220620  0.13300126    -0.54600
C586        C  0.00998795  0.14382085  0.22761064     0.85400
O587        O  0.10107356  0.13055056  0.23561365    -0.56500
O588        O  0.05160422  0.03907021  0.22526105    -0.59800
In589      In  0.50866349  0.91319180  0.37826617     1.36900
C590        C  0.55117459  0.90755099  0.44306560     0.77900
O591        O  0.54280817  0.96492997  0.34597335    -0.60600
O592        O  0.50948818  0.97573339  0.40107764    -0.51500
C593        C  0.49806669  0.85644536  0.32957020     0.70600
O594        O  0.49605061  0.84806330  0.36803238    -0.46300
C595        C  0.43189509  0.92917070  0.36805179     0.75300
O596        O  0.56473172  0.89426068  0.40961738    -0.58200
O597        O  0.45855539  0.94723484  0.34692369    -0.48300
O598        O  0.51350294  0.91115055  0.44583999    -0.54600
C599        C  0.53109363  0.99033373  0.37232743     0.85400
O600        O  0.52225934  0.88487273  0.31893733    -0.56500
O601        O  0.44438255  0.90178534  0.39383950    -0.59800
C602        C  0.33640154  0.86657729  0.26862112    -0.02200
C603        C  0.43069260  0.77729228  0.13935827    -0.02200
In604      In  0.52982688  0.97691087  0.11582051     1.36900
C605        C  0.52219973  0.04907017  0.09212595     0.77900
O606        O  0.58664960  0.97699945  0.15381399    -0.60600
O607        O  0.58880814  0.96284730  0.08923466    -0.51500
C608        C  0.49199755  0.92478334  0.15401984     0.70600
O609        O  0.52953346  0.92379193  0.15946246    -0.46300
C610        C  0.50218764  0.94379192  0.04682415     0.75300
O611        O  0.55312532  0.03971657  0.11253924    -0.58200
O612        O  0.47955440  0.96027627  0.07210544    -0.48300
O613        O  0.49076180  0.03142898  0.10394533    -0.54600
C614        C  0.60794312  0.96785813  0.12269913     0.85400
O615        O  0.47604281  0.95984852  0.15323434    -0.56500
O616        O  0.53908504  0.94670590  0.05482689    -0.59800
C617        C  0.19847803  0.78297744  0.35453104    -0.02200
In618      In  0.13981720  0.96725478  0.21965327     1.36900
C619        C  0.07444682  0.92230969  0.23853636     0.77900
O620        O  0.18767722  0.97593635  0.26854840    -0.60600
O621        O  0.12600214  0.98711651  0.28284093    -0.51500
C622        C  0.18262952  0.90403597  0.22542865     0.70600
O623        O  0.20044252  0.93786085  0.22733470    -0.46300
C624        C  0.13074292  0.03199703  0.16483209     0.75300
O625        O  0.09556228  0.91749210  0.20671600    -0.58200
O626        O  0.11342832  0.99840757  0.16064551    -0.48300
O627        O  0.08379571  0.95335234  0.25868982    -0.54600
C628        C  0.16181997  0.98224417  0.29594564     0.85400
O629        O  0.15409452  0.90422220  0.19964907    -0.56500
O630        O  0.15634293  0.03074279  0.19348172    -0.59800
In631      In  0.52985558  0.59449302  0.97552394     1.36900
C632        C  0.45581152  0.56855901  0.97498497     0.77900
O633        O  0.52823487  0.55557825  0.92092256    -0.60600
O634        O  0.54828212  0.61767209  0.91279825    -0.51500
C635        C  0.50954481  0.64889415  0.02297919     0.70600
O636        O  0.51946828  0.66005727  0.98637205    -0.46300
C637        C  0.58505117  0.54719077  0.00586568     0.75300
O638        O  0.48313608  0.55295829  0.99758257    -0.58200
O639        O  0.59356763  0.57470041  0.97874745    -0.48300
O640        O  0.46547513  0.59964297  0.95322088    -0.54600
C641        C  0.53854918  0.58440504  0.89629779     0.85400
O642        O  0.52957337  0.61939362  0.03840787    -0.56500
O643        O  0.54952809  0.54660989  0.01891950    -0.59800
C644        C  0.33702440  0.65317103  0.05003573    -0.02200
In645      In  0.03205686  0.54832681  0.45478310     1.36900
C646        C  0.03848509  0.50389332  0.51971245     0.77900
O647        O  0.97784089  0.58589394  0.46846482    -0.60600
O648        O  0.97012228  0.52146765  0.46440723    -0.51500
C649        C  0.09471738  0.59139900  0.44184161     0.70600
O650        O  0.09629424  0.55311727  0.43772718    -0.46300
C651        C  0.01238557  0.54462638  0.37847848     0.75300
O652        O  0.03460046  0.54231361  0.52083814    -0.58200
O653        O  0.01146597  0.57793209  0.39670013    -0.48300
O654        O  0.04607782  0.48863325  0.48504800    -0.54600
C655        C  0.95407237  0.55566493  0.47110204     0.85400
O656        O  0.06663433  0.60413861  0.46463109    -0.56500
O657        O  0.03086779  0.51493467  0.39678752    -0.59800
C658        C  0.10703360  0.64716233  0.27450381    -0.02200
C659        C  0.20894364  0.55853584  0.14229477    -0.02200
In660      In  0.17920848  0.44473693  0.93678775     1.36900
C661        C  0.15954065  0.44299852  0.86115247     0.77900
O662        O  0.21436568  0.38688105  0.92088204    -0.60600
O663        O  0.15469121  0.38356628  0.94466932    -0.51500
C664        C  0.21153459  0.49525552  0.98641570     0.70600
O665        O  0.20104930  0.50799828  0.95052743    -0.46300
C666        C  0.11528985  0.44888333  0.98371440     0.75300
O667        O  0.19529696  0.43303379  0.87062099    -0.58200
O668        O  0.11686606  0.46924960  0.94974073    -0.48300
O669        O  0.14460816  0.46917956  0.88411102    -0.54600
C670        C  0.18372257  0.36510831  0.92866260     0.85400
O671        O  0.21923592  0.45739059  0.98973504    -0.56500
O672        O  0.14423823  0.42476562  0.99080331    -0.59800
C673        C  0.21197638  0.56073357  0.02580997    -0.21000
C674        C  0.20331072  0.51913782  0.02363442    -0.09000
C675        C  0.17791821  0.50201475  0.05443359     0.29800
C676        C  0.16543172  0.52453275  0.08788742    -0.21000
C677        C  0.18749855  0.55919116  0.09804018    -0.09100
C678        C  0.20286771  0.58112772  0.06226611     0.29800
F679        F  0.20264493  0.62257822  0.05983259    -0.19600
H680        H  0.22506587  0.57737736  0.99957457     0.18200
H681        H  0.14588431  0.50972488  0.11037002     0.18200
F682        F  0.16655823  0.46271902  0.05380853    -0.19600
C683        C  0.13258948  0.63589609  0.19816650    -0.21000
C684        C  0.13084129  0.62131603  0.24017351    -0.09000
C685        C  0.15265396  0.58401129  0.24781703     0.29800
C686        C  0.18079330  0.56857226  0.21877977    -0.21000
C687        C  0.18121618  0.58138850  0.17619028    -0.09100
C688        C  0.15487512  0.61551285  0.16680768     0.29800
F689        F  0.15072337  0.63033374  0.12722748    -0.19600
H690        H  0.11554607  0.66317609  0.18909832     0.18200
H691        H  0.19982116  0.54320866  0.22922018     0.18200
F692        F  0.14499269  0.55983206  0.28183978    -0.19600
C693        C  0.07794178  0.64418726  0.34762297    -0.21000
C694        C  0.10881595  0.63019211  0.32093778    -0.09000
C695        C  0.14426862  0.61529963  0.34195266     0.29800
C696        C  0.14339044  0.60547725  0.38475492    -0.21000
C697        C  0.11100574  0.61830812  0.40888649    -0.09100
C698        C  0.08204064  0.64374385  0.39004071     0.29800
F699        F  0.05262859  0.66170182  0.41234503    -0.19600
H700        H  0.05079793  0.65906023  0.33634288     0.18200
H701        H  0.16753641  0.58737704  0.39892521     0.18200
F702        F  0.17989494  0.61079630  0.32236600    -0.19600
C703        C  0.31646658  0.58734416  0.09851102    -0.21000
C704        C  0.30899723  0.62738759  0.08159978    -0.09000
C705        C  0.27452612  0.64701466  0.09786126     0.29800
C706        C  0.24770468  0.62672222  0.12560540    -0.21000
C707        C  0.25020639  0.58409112  0.13514380    -0.09100
C708        C  0.28894029  0.56719855  0.12642306     0.29800
F709        F  0.30278687  0.53373688  0.14827768    -0.19600
H710        H  0.34350018  0.57105056  0.09051081     0.18200
H711        H  0.22168944  0.64394470  0.13462586     0.18200
F712        F  0.26538179  0.68621625  0.08555210    -0.19600
C713        C  0.40848850  0.62409409  0.07137001    -0.21000
C714        C  0.38212151  0.64193548  0.04106302    -0.09000
C715        C  0.40099667  0.66465656  0.00762442     0.29800
C716        C  0.44163008  0.67260936  0.00725517    -0.21000
C717        C  0.46736928  0.65419644  0.03635712    -0.09100
C718        C  0.45048353  0.62942760  0.06860882     0.29800
F719        F  0.47454311  0.60991183  0.09724017    -0.19600
H720        H  0.39702265  0.60845792  0.09879324     0.18200
H721        H  0.45331975  0.69100606  0.98140693     0.18200
F722        F  0.38023967  0.68346143  0.97611628    -0.19600
C723        C  0.13474268  0.74092187  0.33609756    -0.21000
C724        C  0.17675576  0.74478121  0.33386474    -0.09000
C725        C  0.19565264  0.71568385  0.30823816     0.29800
C726        C  0.17292173  0.68956145  0.28266762    -0.21000
C727        C  0.12999347  0.68906721  0.28206290    -0.09100
C728        C  0.11246094  0.71826005  0.30784254     0.29800
F729        F  0.07261152  0.72160672  0.30973455    -0.19600
H730        H  0.11833519  0.75944591  0.35747210     0.18200
H731        H  0.18954054  0.66712126  0.26575394     0.18200
F732        F  0.23621186  0.71075423  0.30878490    -0.19600
C733        C  0.14735225  0.82419832  0.30522656    -0.21000
C734        C  0.17743945  0.82461741  0.33692090    -0.09000
C735        C  0.20016339  0.86163595  0.33528408     0.29800
C736        C  0.20413917  0.88473295  0.29790005    -0.21000
C737        C  0.18188850  0.87556935  0.26255622    -0.09100
C738        C  0.15131513  0.84659376  0.26773835     0.29800
F739        F  0.12501481  0.83939898  0.23667031    -0.19600
H740        H  0.12074496  0.80613831  0.30712083     0.18200
H741        H  0.22566329  0.90945890  0.29664384     0.18200
F742        F  0.22493156  0.87182574  0.36628498    -0.19600
C743        C  0.36181470  0.68672017  0.11496785    -0.21000
C744        C  0.34731033  0.69381716  0.07350958    -0.09000
C745        C  0.35981852  0.73149561  0.05428263     0.29800
C746        C  0.38667768  0.75795631  0.07450427    -0.21000
C747        C  0.40342547  0.74789324  0.11429799    -0.09100
C748        C  0.39150310  0.71049782  0.13286035     0.29800
F749        F  0.40665241  0.69797486  0.17042006    -0.19600
H750        H  0.35471606  0.65877286  0.13231002     0.18200
H751        H  0.39476384  0.78607428  0.05797533     0.18200
F752        F  0.34808647  0.74245496  0.01525903    -0.19600
C753        C  0.48015514  0.82629927  0.10062826    -0.21000
C754        C  0.44032633  0.81690000  0.11166104    -0.09000
C755        C  0.41460866  0.85183639  0.11230554     0.29800
C756        C  0.43099681  0.88891511  0.12546143    -0.21000
C757        C  0.47270577  0.89087762  0.13278371    -0.09100
C758        C  0.49704932  0.86219177  0.11334957     0.29800
F759        F  0.53652766  0.86921410  0.10536225    -0.19600
H760        H  0.49934528  0.80560260  0.08493256     0.18200
H761        H  0.41121864  0.91371392  0.13380176     0.18200
F762        F  0.37406255  0.84739855  0.11203418    -0.19600
C763        C  0.27598908  0.80147627  0.35512259    -0.21000
C764        C  0.24162584  0.78904426  0.33326618    -0.09000
C765        C  0.24279442  0.79830949  0.28943211     0.29800
C766        C  0.26929688  0.82766469  0.27215564    -0.21000
C767        C  0.30318125  0.84083770  0.29345488    -0.09100
C768        C  0.30519247  0.82784522  0.33643745     0.29800
F769        F  0.33349001  0.84279263  0.36204726    -0.19600
H770        H  0.27936248  0.79331036  0.38760775     0.18200
H771        H  0.26483811  0.83787027  0.24011614     0.18200
F772        F  0.21352738  0.78525399  0.26384993    -0.19600
C773        C  0.38842200  0.85767870  0.20961861    -0.21000
C774        C  0.35186100  0.84381493  0.22787780    -0.09000
C775        C  0.34220221  0.80281058  0.21633604     0.29800
C776        C  0.36619588  0.78132508  0.18829115    -0.21000
C777        C  0.40591139  0.79348079  0.17794469    -0.09100
C778        C  0.41795978  0.82929932  0.19735753     0.29800
F779        F  0.45722996  0.84002016  0.19802150    -0.19600
H780        H  0.39752859  0.88907562  0.21193889     0.18200
H781        H  0.35294936  0.75409740  0.17694242     0.18200
F782        F  0.31129414  0.78066126  0.23170090    -0.19600
C783        C  0.44645231  0.88741004  0.28595432    -0.21000
C784        C  0.46119737  0.85127540  0.30512187    -0.09000
C785        C  0.43378371  0.82026511  0.31563069     0.29800
C786        C  0.39277563  0.82611813  0.30697953    -0.21000
C787        C  0.37687033  0.86511500  0.29333896    -0.09100
C788        C  0.40556695  0.89645393  0.28602583     0.29800
F789        F  0.39513067  0.93489552  0.27297637    -0.19600
H790        H  0.46671229  0.91199509  0.27692299     0.18200
H791        H  0.37364039  0.79953318  0.30973082     0.18200
F792        F  0.44658415  0.78461341  0.33443871    -0.19600
C793        C  0.12907738  0.15612161  0.35524914    -0.21000
C794        C  0.16744515  0.13819433  0.35907815    -0.09000
C795        C  0.16944883  0.09582848  0.35261744     0.29800
C796        C  0.14467329  0.08140641  0.32166241    -0.21000
C797        C  0.11617631  0.10771715  0.30339687    -0.09100
C798        C  0.10591458  0.14363862  0.32269189     0.29800
F799        F  0.07977514  0.17051557  0.30486247    -0.19600
H800        H  0.12286424  0.18631512  0.36605742     0.18200
H801        H  0.15301357  0.05448278  0.30657023     0.18200
F802        F  0.20179104  0.07290837  0.36520539    -0.19600
C803        C  0.15371322  0.27492413  0.32958255    -0.21000
C804        C  0.12608190  0.26580692  0.29744191    -0.09000
C805        C  0.13587508  0.22967105  0.27644379     0.29800
C806        C  0.16732554  0.20263852  0.28954005    -0.21000
C807        C  0.18903927  0.20697226  0.32706260    -0.09100
C808        C  0.18601289  0.24734114  0.34212216     0.29800
F809        F  0.21353683  0.26003879  0.36989176    -0.19600
H810        H  0.15166196  0.30431738  0.34375811     0.18200
H811        H  0.17017047  0.17525883  0.27260039     0.18200
F812        F  0.11448734  0.21994649  0.24236801    -0.19600
C813        C  0.04328977  0.40198867  0.27517566    -0.21000
C814        C  0.01919110  0.39646602  0.30971273    -0.09000
C815        C  0.03041198  0.36562151  0.33974557     0.29800
C816        C  0.06255206  0.33828275  0.33254959    -0.21000
C817        C  0.08321496  0.33953079  0.29440396    -0.09100
C818        C  0.07474300  0.37504530  0.26751363     0.29800
F819        F  0.09237176  0.38205943  0.23015997    -0.19600
H820        H  0.03671232  0.42657484  0.25260462     0.18200
H821        H  0.06753273  0.31278165  0.35440830     0.18200
F822        F  0.00879145  0.36001278  0.37498522    -0.19600
C823        C  0.31732712  0.93638450  0.22321645    -0.21000
C824        C  0.32076981  0.91409134  0.26198818    -0.09000
C825        C  0.31240113  0.93877125  0.29647643     0.29800
C826        C  0.31001509  0.98268795  0.29319219    -0.21000
C827        C  0.31298914  0.00593517  0.25497523    -0.09100
C828        C  0.31119956  0.98044347  0.21983683     0.29800
F829        F  0.30082670  0.99713154  0.18225460    -0.19600
H830        H  0.31927839  0.91972837  0.19499643     0.18200
H831        H  0.30815612  0.99898707  0.32168161     0.18200
F832        F  0.30816380  0.92052251  0.33447991    -0.19600
C833        C  0.30703336  0.11375395  0.31239013    -0.21000
C834        C  0.29567205  0.08357780  0.28245972    -0.09000
C835        C  0.25459351  0.08815411  0.27134558     0.29800
C836        C  0.22788130  0.11662643  0.29059703    -0.21000
C837        C  0.23802553  0.14084903  0.32570963    -0.09100
C838        C  0.27966302  0.13970622  0.33399579     0.29800
F839        F  0.29494402  0.16632128  0.36103074    -0.19600
H840        H  0.33793948  0.12190065  0.31689777     0.18200
H841        H  0.19797866  0.11751432  0.27812373     0.18200
F842        F  0.23998845  0.06608328  0.23997328    -0.19600
C843        C  0.37743509  0.06092019  0.31561057    -0.21000
C844        C  0.36854079  0.04751547  0.27657675    -0.09000
C845        C  0.40224613  0.03257094  0.25454211     0.29800
C846        C  0.43949861  0.05106384  0.25972982    -0.21000
C847        C  0.44317820  0.07979291  0.29028608    -0.09100
C848        C  0.41359080  0.08063751  0.32132623     0.29800
F849        F  0.41936696  0.10036893  0.35682658    -0.19600
H850        H  0.35506518  0.06043445  0.33950629     0.18200
H851        H  0.46450998  0.04383146  0.23982749     0.18200
F852        F  0.39883409  0.00287850  0.22671336    -0.19600
C853        C  0.36034435  0.06241885  0.17925341    -0.21000
C854        C  0.34047127  0.08011530  0.21382381    -0.09000
C855        C  0.34819164  0.12317530  0.21566107     0.29800
C856        C  0.37670791  0.14397549  0.19041282    -0.21000
C857        C  0.39679663  0.12606503  0.15722427    -0.09100
C858        C  0.38766199  0.08412980  0.15223276     0.29800
F859        F  0.40753694  0.06235761  0.12375815    -0.19600
H860        H  0.35868831  0.03029210  0.17439803     0.18200
H861        H  0.38182236  0.17601444  0.19593581     0.18200
F862        F  0.32800137  0.14732000  0.24147913    -0.19600
C863        C  0.43078659  0.11662721  0.01560339    -0.21000
C864        C  0.46776001  0.13355857  0.00232081    -0.01800
C865        C  0.48763324  0.15942685  0.02880634     0.29800
C866        C  0.47431125  0.16326763  0.06897387    -0.21000
C867        C  0.43985685  0.14263601  0.08537361    -0.09100
C868        C  0.41615346  0.12229335  0.05600644     0.29800
F869        F  0.37893671  0.10824080  0.06537542    -0.19600
H870        H  0.41412405  0.09719190  0.99533861     0.18200
H871        H  0.49194280  0.18353544  0.08706227     0.18200
F872        F  0.52273158  0.17784362  0.01775735    -0.19600
C873        C  0.41818754  0.23295022  0.10062515    -0.21000
C874        C  0.40071961  0.19552983  0.11615918    -0.09000
C875        C  0.35908941  0.19147238  0.10522620     0.29800
C876        C  0.33778163  0.22155016  0.08207214    -0.21000
C877        C  0.35453539  0.25899263  0.06824311    -0.09100
C878        C  0.39561198  0.26424713  0.07834726     0.29800
F879        F  0.41513069  0.29794764  0.06416984    -0.19600
H880        H  0.45011465  0.23756111  0.10287443     0.18200
H881        H  0.30676987  0.21503644  0.07433489     0.18200
F882        F  0.33801438  0.15679917  0.11376121    -0.19600
C883        C  0.30707032  0.35159133  0.99703995    -0.21000
C884        C  0.33185874  0.33568706  0.03014466    -0.09000
C885        C  0.34836240  0.36633853  0.05549011     0.29800
C886        C  0.33743384  0.40814139  0.04961789    -0.21000
C887        C  0.31218827  0.42193347  0.01664267    -0.09100
C888        C  0.29830657  0.39268299  0.99010879     0.29800
F889        F  0.27889704  0.40390249  0.95460744    -0.19600
H890        H  0.29210373  0.33261328  0.97550244     0.18200
H891        H  0.35156863  0.43022749  0.06903953     0.18200
F892        F  0.37592736  0.35730422  0.08531248    -0.19600
C893        C  0.18401542  0.44119436  0.17414871    -0.21000
C894        C  0.21282037  0.41704395  0.15344954    -0.09000
C895        C  0.24327661  0.44089373  0.13345636     0.29800
C896        C  0.24204388  0.48459153  0.13110134    -0.21000
C897        C  0.21502479  0.50929043  0.15393847    -0.09100
C898        C  0.18488751  0.48479005  0.17488726     0.29800
F899        F  0.15083918  0.50211526  0.18937150    -0.19600
H900        H  0.15752278  0.42654879  0.18698285     0.18200
H901        H  0.26042911  0.49862191  0.10717857     0.18200
F902        F  0.27327186  0.42262992  0.11276229    -0.19600
C903        C  0.14061542  0.32145617  0.16490644    -0.21000
C904        C  0.17298371  0.34880885  0.17362972    -0.09000
C905        C  0.18320657  0.35083455  0.21578284     0.29800
C906        C  0.15873114  0.33312400  0.24659115    -0.21000
C907        C  0.12322855  0.31088434  0.23753737    -0.09100
C908        C  0.11604965  0.30332966  0.19587494     0.29800
F909        F  0.08576732  0.27841728  0.18464546    -0.19600
H910        H  0.13216626  0.31399640  0.13415033     0.18200
H911        H  0.16656377  0.33898025  0.27830381     0.18200
F912        F  0.21654509  0.37107167  0.22776364    -0.19600
C913        C  0.27376973  0.33992317  0.13719404    -0.21000
C914        C  0.23284072  0.33790493  0.12787081    -0.09000
C915        C  0.22242922  0.30449866  0.10196364     0.29800
C916        C  0.25055111  0.28730166  0.07473445    -0.21000
C917        C  0.29124983  0.29652359  0.07768501    -0.09100
C918        C  0.30187711  0.31623304  0.11541639     0.29800
F919        F  0.33941111  0.31262530  0.13163642    -0.19600
H920        H  0.28405980  0.35930332  0.16144795     0.18200
H921        H  0.23999160  0.26651836  0.05227481     0.18200
F922        F  0.18442976  0.29101724  0.09878091    -0.19600
C923        C  0.20349555  0.38546534  0.06250540    -0.21000
C924        C  0.17934259  0.38315001  0.09843675    -0.09000
C925        C  0.13824713  0.37736579  0.09189487     0.29800
C926        C  0.12728707  0.35291195  0.05917291    -0.21000
C927        C  0.15676249  0.34045299  0.03185615    -0.09100
C928        C  0.19356740  0.36046733  0.03066167     0.29800
F929        F  0.22214233  0.35041036  0.00325818    -0.19600
H930        H  0.23429461  0.39510226  0.06338112     0.18200
H931        H  0.09842013  0.33918629  0.05787130     0.18200
F932        F  0.11116122  0.38744847  0.12109557    -0.19600
C933        C  0.48696531  0.11494924  0.16265154    -0.21000
C934        C  0.46787655  0.15377257  0.15538461    -0.09000
C935        C  0.49271627  0.18750588  0.16481591     0.29800
C936        C  0.53554353  0.18262785  0.16984772    -0.21000
C937        C  0.55532140  0.14359237  0.17015789    -0.09100
C938        C  0.52863823  0.11004592  0.17139093     0.29800
F939        F  0.54279982  0.07184191  0.18085151    -0.19600
H940        H  0.46980711  0.08732842  0.15963487     0.18200
H941        H  0.55332362  0.20995165  0.17291888     0.18200
F942        F  0.47649346  0.22532389  0.16803517    -0.19600
C943        C  0.66737992  0.05691525  0.11986097    -0.21000
C944        C  0.67300494  0.07652368  0.08124356    -0.09000
C945        C  0.64212853  0.10172547  0.06515216     0.29800
C946        C  0.60945365  0.11096312  0.09028809    -0.21000
C947        C  0.61165450  0.10273802  0.13329117    -0.09100
C948        C  0.63434184  0.06688009  0.14391617     0.29800
F949        F  0.62778553  0.04448765  0.17939640    -0.19600
H950        H  0.68847304  0.03389341  0.13127774     0.18200
H951        H  0.58460722  0.12784205  0.07673444     0.18200
F952        F  0.64304652  0.11661767  0.02540891    -0.19600
C953        C  0.67001528  0.11555492  0.20344652    -0.21000
C954        C  0.62742533  0.12169700  0.20620170    -0.09000
C955        C  0.60913206  0.10027687  0.24013474     0.29800
C956        C  0.63132137  0.07268173  0.26703768    -0.21000
C957        C  0.67399442  0.06862982  0.26506157    -0.09100
C958        C  0.69218708  0.08901002  0.23066225     0.29800
F959        F  0.73163801  0.08266472  0.22213582    -0.19600
H960        H  0.68598457  0.12746886  0.17653169     0.18200
H961        H  0.61560869  0.05732816  0.29234187     0.18200
F962        F  0.56970062  0.10580508  0.24777565    -0.19600
C963        C  0.68385720  0.13851295  0.37287979    -0.21000
C964        C  0.69917423  0.12384016  0.41068940    -0.09000
C965        C  0.70239180  0.08097550  0.41662809     0.29800
C966        C  0.69367536  0.05464454  0.38388893    -0.21000
C967        C  0.68175323  0.06938821  0.34380061    -0.09100
C968        C  0.67249405  0.11263776  0.34179124     0.29800
F969        F  0.65883087  0.13322597  0.30730214    -0.19600
H970        H  0.67987914  0.17110620  0.36682667     0.18200
H971        H  0.69894134  0.02288880  0.38966504     0.18200
F972        F  0.71563514  0.06441040  0.45338901    -0.19600
C973        C  0.67930856  0.22556441  0.13219173    -0.21000
C974        C  0.67167418  0.22938686  0.08834165    -0.09000
C975        C  0.63723744  0.20749006  0.07578229     0.29800
C976        C  0.60952044  0.19256119  0.10530532    -0.21000
C977        C  0.62261853  0.17819586  0.14477761    -0.09100
C978        C  0.65647008  0.19952265  0.15937653     0.29800
F979        F  0.66533915  0.19902363  0.20042271    -0.19600
H980        H  0.70109307  0.24412987  0.14723150     0.18200
H981        H  0.57919730  0.18672049  0.09511913     0.18200
F982        F  0.62636425  0.20643131  0.03540262    -0.19600
C983        C  0.58603386  0.27727633  0.00919338    -0.21000
C984        C  0.56039818  0.27610913  0.04347409    -0.09000
C985        C  0.57642863  0.28875845  0.08146301     0.29800
C986        C  0.61821231  0.29618109  0.08553724    -0.21000
C987        C  0.64492345  0.29061330  0.05173040    -0.09100
C988        C  0.62591993  0.28888558  0.01268382     0.29800
F989        F  0.64465236  0.29996602  0.97736428    -0.19600
H990        H  0.57436332  0.27317965  0.97832146     0.18200
H991        H  0.63031419  0.30021901  0.11626436     0.18200
F992        F  0.55223739  0.29229835  0.11487800    -0.19600
C993        C  0.78804260  0.06750296  0.36510695    -0.21000
C994        C  0.79716306  0.10967235  0.36185017    -0.09000
C995        C  0.77133314  0.13167104  0.33407449     0.29800
C996        C  0.74797159  0.11133163  0.30426049    -0.21000
C997        C  0.74318071  0.06761418  0.30541927    -0.09100
C998        C  0.77118781  0.04756259  0.33146921     0.29800
F999        F  0.78745384  0.01151597  0.32029438    -0.19600
H1000       H  0.79840820  0.04864932  0.39078079     0.18200
H1001       H  0.72860693  0.13072670  0.28503601     0.18200
F1002       F  0.76633606  0.17271499  0.33723303    -0.19600
C1003       C  0.89359055  0.10750551  0.32386457    -0.21000
C1004       C  0.87152775  0.09592284  0.36014143    -0.09000
C1005       C  0.87008708  0.05314552  0.36803967     0.29800
C1006       C  0.87163581  0.02716615  0.33483336    -0.21000
C1007       C  0.87987413  0.04274139  0.29455732    -0.09100
C1008       C  0.89417787  0.08270294  0.29009252     0.29800
F1009       F  0.90932931  0.09773688  0.25362508    -0.19600
H1010       H  0.90780383  0.13685141  0.31953704     0.18200
H1011       H  0.86568293  0.99499829  0.34085288     0.18200
F1012       F  0.86122198  0.03657313  0.40595796    -0.19600
C1013       C  0.75234135  0.27475304  0.10147707    -0.21000
C1014       C  0.71766052  0.29416397  0.08506518    -0.09000
C1015       C  0.71342219  0.33632434  0.09405685     0.29800
C1016       C  0.74213060  0.35693635  0.11888751    -0.21000
C1017       C  0.77679521  0.33693081  0.13630040    -0.09100
C1018       C  0.77883001  0.29391431  0.12874490     0.29800
F1019       F  0.80790332  0.26932724  0.14526095    -0.19600
H1020       H  0.75760051  0.24278140  0.09536668     0.18200
H1021       H  0.73722015  0.38913974  0.12330984     0.18200
F1022       F  0.68283907  0.35877993  0.07696697    -0.19600
C1023       C  0.87619604  0.31224061  0.07497946    -0.21000
C1024       C  0.91322637  0.31693608  0.09475022    -0.09000
C1025       C  0.91989488  0.35065946  0.11927146     0.29800
C1026       C  0.88701753  0.37455365  0.13025528    -0.21000
C1027       C  0.84790902  0.36180642  0.11907048    -0.09100
C1028       C  0.84463369  0.33819700  0.08362068     0.29800
F1029       F  0.81028417  0.33606246  0.06099643    -0.19600
H1030       H  0.87055142  0.28645354  0.05596737     0.18200
H1031       H  0.89122133  0.39549712  0.15499987     0.18200
F1032       F  0.95618088  0.35649570  0.13740276    -0.19600
C1033       C  0.99063830  0.24836363  0.30352488    -0.21000
C1034       C  0.96142645  0.27199058  0.28039325    -0.09000
C1035       C  0.97962869  0.29899998  0.24974671     0.29800
C1036       C  0.02216668  0.30043390  0.24257571    -0.21000
C1037       C  0.05112740  0.27924463  0.26823495    -0.09100
C1038       C  0.03312028  0.25345918  0.29954843     0.29800
F1039       F  0.05603871  0.23702149  0.33082921    -0.19600
H1040       H  0.98170946  0.22674328  0.32737295     0.18200
H1041       H  0.03266012  0.32293530  0.21974616     0.18200
F1042       F  0.95727240  0.32783557  0.22874050    -0.19600
C1043       C  0.91027342  0.21626110  0.35183356    -0.21000
C1044       C  0.89892372  0.22951605  0.31079231    -0.09000
C1045       C  0.86632744  0.20872304  0.29350384     0.29800
C1046       C  0.84470778  0.17953272  0.31679332    -0.21000
C1047       C  0.85244610  0.16927808  0.35959799    -0.09100
C1048       C  0.88690696  0.18865664  0.37603997     0.29800
F1049       F  0.89929673  0.18077286  0.41556594    -0.19600
H1050       H  0.93301484  0.23261629  0.36842652     0.18200
H1051       H  0.82650804  0.16067982  0.29787181     0.18200
F1052       F  0.85559424  0.21461021  0.25317337    -0.19600
C1053       C  0.84494427  0.30924149  0.26337971    -0.21000
C1054       C  0.88341939  0.28976423  0.25631142    -0.09000
C1055       C  0.89113503  0.28429923  0.21449944     0.29800
C1056       C  0.86760942  0.30435153  0.18363811    -0.21000
C1057       C  0.83611523  0.33357681  0.19082489    -0.09100
C1058       C  0.82246667  0.33118307  0.23188827     0.29800
F1059       F  0.78719685  0.34947038  0.24178827    -0.19600
H1060       H  0.83077532  0.30741979  0.29301647     0.18200
H1061       H  0.87313721  0.29416499  0.15338644     0.18200
F1062       F  0.92046091  0.25803149  0.20294781    -0.19600
C1063       C  0.84997063  0.33236987  0.36591240    -0.21000
C1064       C  0.85736574  0.36920177  0.34590295    -0.09000
C1065       C  0.89112009  0.37374666  0.32056610     0.29800
C1066       C  0.91881841  0.34232571  0.31830790    -0.21000
C1067       C  0.90573354  0.30246071  0.32747276    -0.09100
C1068       C  0.87174124  0.29845067  0.35531662     0.29800
F1069       F  0.85087655  0.26374634  0.36347711    -0.19600
H1070       H  0.82205628  0.32804375  0.38269225     0.18200
H1071       H  0.94443427  0.34806911  0.29882066     0.18200
F1072       F  0.89458404  0.40540619  0.29318897    -0.19600
C1073       C  0.82419987  0.47603142  0.19441702    -0.21000
C1074       C  0.82170972  0.50062789  0.15738463    -0.09000
C1075       C  0.80848408  0.47886178  0.12240842     0.29800
C1076       C  0.80135096  0.43595797  0.12407660    -0.21000
C1077       C  0.80961629  0.40994619  0.15957953    -0.09100
C1078       C  0.82121995  0.43208486  0.19518199     0.29800
F1079       F  0.83467994  0.41211818  0.22991969    -0.19600
H1080       H  0.83326780  0.49023301  0.22221113     0.18200
H1081       H  0.79403749  0.42217336  0.09506951     0.18200
F1082       F  0.80719457  0.49797757  0.08443581    -0.19600
C1083       C  0.90316029  0.49534403  0.13830482    -0.21000
C1084       C  0.88551582  0.53441807  0.12925713    -0.09000
C1085       C  0.91267414  0.56579003  0.11603257     0.29800
C1086       C  0.95424186  0.55750848  0.11245618    -0.21000
C1087       C  0.97051735  0.51966522  0.12686592    -0.09100
C1088       C  0.94419828  0.48985103  0.14236779     0.29800
F1089       F  0.95786024  0.45341386  0.15889953    -0.19600
H1090       H  0.88623716  0.46889088  0.14804365     0.18200
H1091       H  0.97379343  0.58076110  0.09897494     0.18200
F1092       F  0.89966170  0.60481748  0.10858961    -0.19600
C1093       C  0.78584345  0.61240140  0.06428602    -0.21000
C1094       C  0.75067884  0.62486312  0.08593785    -0.09000
C1095       C  0.75074169  0.61313292  0.12906554     0.29800
C1096       C  0.77917258  0.58565076  0.14649741    -0.21000
C1097       C  0.81303020  0.57215445  0.12472767    -0.09100
C1098       C  0.81613500  0.58667212  0.08295400     0.29800
F1099       F  0.84613519  0.57317765  0.05854416    -0.19600
H1100       H  0.78858556  0.61854787  0.03147627     0.18200
H1101       H  0.77531850  0.57558170  0.17859826     0.18200
F1102       F  0.72000818  0.62334115  0.15423042    -0.19600
C1103       C  0.72649610  0.51888306  0.03994421    -0.21000
C1104       C  0.70749467  0.49684729  0.07181809    -0.09000
C1105       C  0.68626875  0.51877865  0.10159806     0.29800
C1106       C  0.68229799  0.56167024  0.09752469    -0.21000
C1107       C  0.69814321  0.58394137  0.06283473    -0.09100
C1108       C  0.71963045  0.56033496  0.03354021     0.29800
F1109       F  0.73731625  0.57718800  0.99927922    -0.19600
H1110       H  0.74330885  0.50328995  0.01648070     0.18200
H1111       H  0.66838099  0.57713598  0.12269017     0.18200
F1112       F  0.66844280  0.49865271  0.13409225    -0.19600
C1113       C  0.53167875  0.74243926  0.19854438    -0.21000
C1114       C  0.55945306  0.74377643  0.16509983    -0.09000
C1115       C  0.54090385  0.74008418  0.12562558     0.29800
C1116       C  0.49839675  0.74060407  0.12051220    -0.21000
C1117       C  0.47264208  0.75473643  0.15189499    -0.09100
C1118       C  0.48969740  0.75104642  0.19239795     0.29800
F1119       F  0.46635762  0.75529935  0.22630351    -0.19600
H1120       H  0.54222013  0.73625350  0.22982827     0.18200
H1121       H  0.48644157  0.73771322  0.08950761     0.18200
F1122       F  0.56389255  0.73793519  0.09113482    -0.19600
C1123       C  0.67530523  0.71901039  0.13707251    -0.21000
C1124       C  0.63366925  0.71470942  0.14784016    -0.09000
C1125       C  0.61738158  0.67751372  0.13237608     0.29800
C1126       C  0.63943139  0.65123114  0.10524958    -0.21000
C1127       C  0.67957189  0.65939250  0.09179914    -0.09100
C1128       C  0.69585326  0.69529370  0.10782314     0.29800
F1129       F  0.73289660  0.70792883  0.09542972    -0.19600
H1130       H  0.69236232  0.74436748  0.14716632     0.18200
H1131       H  0.62427381  0.62446650  0.09447145     0.18200
F1132       F  0.58007368  0.66519963  0.14382225    -0.19600
C1133       C  0.64557870  0.79706876  0.11540056    -0.21000
C1134       C  0.61301782  0.79305489  0.14235974    -0.09000
C1135       C  0.60114294  0.83077140  0.15879727     0.29800
C1136       C  0.63125397  0.85931338  0.16762138    -0.21000
C1137       C  0.67173914  0.85045506  0.15790672    -0.09100
C1138       C  0.67808353  0.81991990  0.12892067     0.29800
F1139       F  0.71545067  0.80978176  0.11588509    -0.19600
H1140       H  0.65026930  0.77547616  0.09134941     0.18200
H1141       H  0.62303778  0.88648138  0.18340260     0.18200
F1142       F  0.56377013  0.83574025  0.17457252    -0.19600
C1143       C  0.99368845  0.61430172  0.27959058    -0.21000
C1144       C  0.96938847  0.64988074  0.27401599    -0.09000
C1145       C  0.99098463  0.68356477  0.25549431     0.29800
C1146       C  0.03452774  0.68307629  0.25099024    -0.21000
C1147       C  0.05896900  0.64815155  0.26272450    -0.09100
C1148       C  0.03588048  0.61263829  0.27257449     0.29800
F1149       F  0.05497204  0.57631994  0.28060190    -0.19600
H1150       H  0.98002685  0.58672577  0.29043689     0.18200
H1151       H  0.04907038  0.71064826  0.23920117     0.18200
F1152       F  0.97006820  0.71674631  0.24062509    -0.19600
C1153       C  0.90811807  0.57969257  0.24451823    -0.21000
C1154       C  0.90288027  0.62292289  0.24470722    -0.09000
C1155       C  0.87765549  0.63980159  0.21338889     0.29800
C1156       C  0.85617728  0.61444048  0.18663496    -0.21000
C1157       C  0.85929043  0.57041135  0.18800985    -0.09100
C1158       C  0.88758529  0.55449874  0.21741625     0.29800
F1159       F  0.89876401  0.51466806  0.21836103    -0.19600
H1160       H  0.92638056  0.56387182  0.26760882     0.18200
H1161       H  0.83941847  0.63088579  0.16258209     0.18200
F1162       F  0.87425427  0.68103026  0.20742422    -0.19600
C1163       C  0.90411539  0.63540994  0.39521154    -0.21000
C1164       C  0.86224371  0.62892878  0.39408238    -0.09000
C1165       C  0.84564422  0.61230239  0.35878350     0.29800
C1166       C  0.86907042  0.60757856  0.32394725    -0.21000
C1167       C  0.90941774  0.62196015  0.32177818    -0.09100
C1168       C  0.92784407  0.63011182  0.36005112     0.29800
F1169       F  0.96764141  0.63840683  0.36237829    -0.19600
H1170       H  0.91868550  0.64474671  0.42331819     0.18200
H1171       H  0.85264018  0.59885616  0.29679633     0.18200
F1172       F  0.80618352  0.60198607  0.35695659    -0.19600
C1173       C  0.72042001  0.92463361  0.32010758    -0.21000
C1174       C  0.69506587  0.90456925  0.29171182    -0.09000
C1175       C  0.67225543  0.93335045  0.26664000     0.29800
C1176       C  0.67526011  0.97736131  0.26959684    -0.21000
C1177       C  0.69791954  0.99761398  0.30081383    -0.09100
C1178       C  0.71938638  0.96779786  0.32701457     0.29800
F1179       F  0.73841654  0.97796008  0.36214590    -0.19600
H1180       H  0.73735903  0.90571842  0.34232907     0.18200
H1181       H  0.65694408  0.99535859  0.24797225     0.18200
F1182       F  0.64314941  0.91918652  0.24187249    -0.19600
C1183       C  0.68047334  0.80460327  0.24396220    -0.21000
C1184       C  0.65754106  0.83034520  0.27014326    -0.09000
C1185       C  0.61610304  0.81958453  0.27039394     0.29800
C1186       C  0.59936508  0.79195641  0.24143256    -0.21000
C1187       C  0.62275147  0.76650775  0.21464255    -0.09100
C1188       C  0.66444963  0.77090890  0.22280300     0.29800
F1189       F  0.69043571  0.74016019  0.21528023    -0.19600
H1190       H  0.71262869  0.80744056  0.24220508     0.18200
H1191       H  0.56725851  0.79402367  0.23908099     0.18200
F1192       F  0.59052382  0.83578449  0.29783367    -0.19600
C1193       C  0.67480295  0.85965063  0.38448167    -0.21000
C1194       C  0.65604702  0.86697498  0.34495203    -0.09000
C1195       C  0.62940557  0.90125671  0.34372551     0.29800
C1196       C  0.63604684  0.93342960  0.37045790    -0.21000
C1197       C  0.66510456  0.92979628  0.40228477    -0.09100
C1198       C  0.68235568  0.89140290  0.41067636     0.29800
F1199       F  0.70659774  0.88415882  0.44417309    -0.19600
H1200       H  0.68830624  0.83123728  0.39473845     0.18200
H1201       H  0.61897738  0.96153502  0.36563762     0.18200
F1202       F  0.60392206  0.90856384  0.31145765    -0.19600
C1203       C  0.78608653  0.80428794  0.31354872    -0.21000
C1204       C  0.78141797  0.78106978  0.35132977    -0.09000
C1205       C  0.74149602  0.77008159  0.36083101     0.29800
C1206       C  0.70951127  0.79104906  0.34038147    -0.21000
C1207       C  0.71660231  0.82831925  0.31720500    -0.09100
C1208       C  0.75546716  0.83172819  0.30013441     0.29800
F1209       F  0.76365800  0.86025167  0.26977391    -0.19600
H1210       H  0.81560704  0.80767183  0.29978527     0.18200
H1211       H  0.67898336  0.78179358  0.34750047     0.18200
F1212       F  0.73324573  0.73967645  0.38928800    -0.19600
C1213       C  0.88946030  0.73683690  0.35268228    -0.21000
C1214       C  0.84654556  0.73846529  0.35214685    -0.09000
C1215       C  0.82991166  0.71399227  0.32049613     0.29800
C1216       C  0.85399894  0.69149881  0.29248096    -0.21000
C1217       C  0.89700846  0.68900119  0.29414297    -0.09100
C1218       C  0.91319480  0.71349480  0.32530198     0.29800
F1219       F  0.95235069  0.70877041  0.33480155    -0.19600
H1220       H  0.90651160  0.75150301  0.37572530     0.18200
H1221       H  0.83761207  0.67145864  0.27283547     0.18200
F1222       F  0.78957286  0.70883671  0.31757972    -0.19600
C1223       C  0.83255410  0.84970543  0.36595433    -0.21000
C1224       C  0.84296528  0.81098137  0.38452575    -0.09000
C1225       C  0.87871896  0.81158752  0.40735632     0.29800
C1226       C  0.90849251  0.83966553  0.39581789    -0.21000
C1227       C  0.90326988  0.86415465  0.36006452    -0.09100
C1228       C  0.86333759  0.87344832  0.34848635     0.29800
F1229       F  0.85421571  0.90083543  0.31722587    -0.19600
H1230       H  0.80190040  0.85892623  0.35957500     0.18200
H1231       H  0.93735878  0.83686823  0.40922566     0.18200
F1232       F  0.88717821  0.78132999  0.43554628    -0.19600
C1233       C  0.23246163  0.13810186  0.42499220    -0.21000
C1234       C  0.21316699  0.17078333  0.40225031    -0.09000
C1235       C  0.18886551  0.19594053  0.42834451     0.29800
C1236       C  0.18636016  0.18983449  0.47192937    -0.21000
C1237       C  0.20268577  0.15522229  0.49359594    -0.09100
C1238       C  0.22668845  0.12978303  0.46830907     0.29800
F1239       F  0.24159437  0.09378314  0.48423341    -0.19600
H1240       H  0.24831822  0.11511670  0.40821817     0.18200
H1241       H  0.16544335  0.20930696  0.48767539     0.18200
F1242       F  0.16120533  0.22287986  0.41294621    -0.19600
C1243       C  0.12050601  0.08094150  0.45403541    -0.21000
C1244       C  0.09140734  0.11132026  0.44334071    -0.09000
C1245       C  0.08517019  0.14286528  0.47024597     0.29800
C1246       C  0.11017444  0.14675855  0.50422956    -0.21000
C1247       C  0.14284475  0.11914787  0.51374128    -0.09100
C1248       C  0.14540400  0.08427737  0.48926017     0.29800
F1249       F  0.17405885  0.05526050  0.49715819    -0.19600
H1250       H  0.12476533  0.05509096  0.43450275     0.18200
H1251       H  0.10615181  0.17517286  0.51969579     0.18200
F1252       F  0.05675326  0.17218179  0.46215358    -0.19600
C1253       C  0.19502458  0.08090342  0.59547922    -0.21000
C1254       C  0.20927086  0.10857498  0.56351633    -0.09000
C1255       C  0.25045126  0.11796348  0.56712540     0.29800
C1256       C  0.27636767  0.09555334  0.59418360    -0.21000
C1257       C  0.26333506  0.06644920  0.62512317    -0.09100
C1258       C  0.22080797  0.06346824  0.62751858     0.29800
F1259       F  0.20351754  0.04501156  0.66126206    -0.19600
H1260       H  0.16362607  0.07356887  0.59707057     0.18200
H1261       H  0.30652619  0.10009451  0.58817040     0.18200
F1262       F  0.26688686  0.14947894  0.54453533    -0.19600
C1263       C  0.38407061  0.03538428  0.58120081    -0.21000
C1264       C  0.36087386  0.04166260  0.54561262    -0.09000
C1265       C  0.32337273  0.02271407  0.54273715     0.29800
C1266       C  0.30501821  0.00936708  0.57889103    -0.21000
C1267       C  0.32311046  0.01996491  0.61645984    -0.09100
C1268       C  0.36540679  0.02136911  0.61726625     0.29800
F1269       F  0.38663787  0.01970571  0.65329558    -0.19600
H1270       H  0.41247095  0.05012158  0.58369398     0.18200
H1271       H  0.27346521  0.00201422  0.57706136     0.18200
F1272       F  0.30073747  0.02695085  0.50779317    -0.19600
C1273       C  0.18035362  0.20863576  0.56863190    -0.21000
C1274       C  0.16487615  0.16913145  0.56655899    -0.09000
C1275       C  0.13155828  0.15964491  0.59306794     0.29800
C1276       C  0.11071394  0.19007529  0.61394846    -0.21000
C1277       C  0.12297447  0.23114493  0.61199707    -0.09100
C1278       C  0.16025993  0.23883125  0.59074179     0.29800
F1279       F  0.17639840  0.27680266  0.58865767    -0.19600
H1280       H  0.20714837  0.21695655  0.55144758     0.18200
H1281       H  0.08288995  0.18088631  0.62731143     0.18200
F1282       F  0.11416319  0.12223222  0.59352975    -0.19600
C1283       C  0.08090649  0.32274265  0.51368703    -0.21000
C1284       C  0.05096665  0.29711191  0.49817096    -0.09000
C1285       C  0.04259660  0.26052868  0.52020015     0.29800
C1286       C  0.05674281  0.25453982  0.56014288    -0.21000
C1287       C  0.08317623  0.28232316  0.57910091    -0.09100
C1288       C  0.09842973  0.31444243  0.55295963     0.29800
F1289       F  0.13098176  0.33650761  0.56313280    -0.19600
H1290       H  0.08928139  0.35036115  0.49628637     0.18200
H1291       H  0.04614312  0.22745118  0.57693084     0.18200
F1292       F  0.01555289  0.23325202  0.50616830    -0.19600
C1293       C  0.37948969  0.11986427  0.68968167    -0.21000
C1294       C  0.37917299  0.11334169  0.73267155    -0.09000
C1295       C  0.34707721  0.08710016  0.74782554     0.29800
C1296       C  0.32042293  0.06614106  0.72168466    -0.21000
C1297       C  0.32364731  0.06818543  0.67832426    -0.09100
C1298       C  0.35322062  0.09816573  0.66328004     0.29800
F1299       F  0.36134839  0.10490345  0.62282701    -0.19600
H1300       H  0.40188768  0.13994408  0.67591165     0.18200
H1301       H  0.29779579  0.04669097  0.73604035     0.18200
F1302       F  0.34209606  0.08054908  0.78925140    -0.19600
C1303       C  0.44119711  0.02076069  0.81990857    -0.21000
C1304       C  0.45562187  0.99962494  0.78522867    -0.09000
C1305       C  0.45312578  0.01857905  0.74651106     0.29800
C1306       C  0.44021205  0.05852556  0.74268240    -0.21000
C1307       C  0.42790683  0.08251710  0.77678973    -0.09100
C1308       C  0.42682418  0.06164738  0.81576519     0.29800
F1309       F  0.41187613  0.07967456  0.84946350    -0.19600
H1310       H  0.44291085  0.00634698  0.85063706     0.18200
H1311       H  0.43766021  0.06973128  0.71119124     0.18200
F1312       F  0.46501095  0.99918938  0.71208414    -0.19600
C1313       C  0.15799840  0.35921804  0.67785079    -0.21000
C1314       C  0.17903585  0.33745283  0.71032423    -0.09000
C1315       C  0.17857127  0.29398379  0.70552167     0.29800
C1316       C  0.15136647  0.27511499  0.67924141    -0.21000
C1317       C  0.12509414  0.29656545  0.65155125    -0.09100
C1318       C  0.13015859  0.34004683  0.65076037     0.29800
F1319       F  0.10747223  0.36523754  0.62578392    -0.19600
H1320       H  0.16201677  0.39175672  0.67372437     0.18200
H1321       H  0.15006381  0.24204763  0.68240119     0.18200
F1322       F  0.19942006  0.26733432  0.73056523    -0.19600
C1323       C  0.15559896  0.29362884  0.79913216    -0.21000
C1324       C  0.14730672  0.33197946  0.77791046    -0.09000
C1325       C  0.10794157  0.33286600  0.75975236     0.29800
C1326       C  0.08743282  0.29636793  0.75089246    -0.21000
C1327       C  0.10398454  0.25767532  0.76196094    -0.09100
C1328       C  0.13819385  0.25730851  0.78723248     0.29800
F1329       F  0.15701033  0.22176088  0.79902716    -0.19600
H1330       H  0.18023807  0.28816558  0.81990376     0.18200
H1331       H  0.05798714  0.29853889  0.73647779     0.18200
F1332       F  0.08750604  0.36809604  0.75279657    -0.19600
C1333       C  0.35438920  0.26798715  0.92884369    -0.21000
C1334       C  0.31882246  0.26130013  0.90575227    -0.09000
C1335       C  0.28488736  0.25175910  0.93117664     0.29800
C1336       C  0.28531082  0.25617388  0.97582309    -0.21000
C1337       C  0.32066970  0.26788976  0.99807269    -0.09100
C1338       C  0.35565055  0.26921887  0.97264454     0.29800
F1339       F  0.39214334  0.27462962  0.99001113    -0.19600
H1340       H  0.38224233  0.27414748  0.91269928     0.18200
H1341       H  0.25732659  0.25174393  0.99180754     0.18200
F1342       F  0.25111045  0.23799641  0.91285894    -0.19600
C1343       C  0.37812980  0.20414177  0.85477755    -0.21000
C1344       C  0.33975078  0.21985448  0.84082179    -0.09000
C1345       C  0.32263131  0.19602970  0.81019398     0.29800
C1346       C  0.34675955  0.17065447  0.78548997    -0.21000
C1347       C  0.38669012  0.15595545  0.79663062    -0.09100
C1348       C  0.39880419  0.17067619  0.83590667     0.29800
F1349       F  0.43142317  0.15435431  0.85605456    -0.19600
H1350       H  0.39281515  0.21711482  0.88086209     0.18200
H1351       H  0.33189976  0.16258822  0.75732013     0.18200
F1352       F  0.28245621  0.19775334  0.80263352    -0.19600
C1353       C  0.25320312  0.31171873  0.76173886    -0.21000
C1354       C  0.22471953  0.33745757  0.77986594    -0.09000
C1355       C  0.22952501  0.33884988  0.82356602     0.29800
C1356       C  0.25505033  0.31110159  0.84757587    -0.21000
C1357       C  0.27988569  0.28043088  0.83002033    -0.09100
C1358       C  0.27700467  0.28225671  0.78504174     0.29800
F1359       F  0.30096951  0.25911227  0.76136750    -0.19600
H1360       H  0.25567704  0.31220622  0.72832957     0.18200
H1361       H  0.25688795  0.31552475  0.88046062     0.18200
F1362       F  0.20401467  0.36271614  0.84382065    -0.19600
C1363       C  0.36304313  0.29650827  0.79971198    -0.21000
C1364       C  0.34863036  0.29810241  0.84071392    -0.09000
C1365       C  0.33980941  0.33801444  0.85434819     0.29800
C1366       C  0.33029509  0.36951703  0.82532298    -0.21000
C1367       C  0.33386087  0.36385698  0.78251446    -0.09100
C1368       C  0.35206911  0.32725201  0.77017001     0.29800
F1369       F  0.35770198  0.32018493  0.72942870    -0.19600
H1370       H  0.37425398  0.26803612  0.78806054     0.18200
H1371       H  0.31985001  0.39847552  0.83662854     0.18200
F1372       F  0.33176830  0.34477055  0.89463952    -0.19600
C1373       C  0.17150563  0.74777737  0.47458092    -0.21000
C1374       C  0.18984208  0.77679900  0.50049399    -0.09000
C1375       C  0.21349471  0.80588540  0.47731880     0.29800
C1376       C  0.21618207  0.80716385  0.43286278    -0.21000
C1377       C  0.19729205  0.77889462  0.40619867    -0.09100
C1378       C  0.17639703  0.74746584  0.43013741     0.29800
F1379       F  0.15996556  0.71512429  0.41159234    -0.19600
H1380       H  0.15166249  0.72507209  0.48828721     0.18200
H1381       H  0.23485945  0.83095004  0.42039004     0.18200
F1382       F  0.23350402  0.83521217  0.49745787    -0.19600
C1383       C  0.17440648  0.86330719  0.55346840    -0.21000
C1384       C  0.15483536  0.82565320  0.54483883    -0.09000
C1385       C  0.11832849  0.82889681  0.52284656     0.29800
C1386       C  0.10604829  0.86668930  0.50532308    -0.21000
C1387       C  0.12843215  0.90226940  0.50995662    -0.09100
C1388       C  0.16068522  0.90104203  0.53725063     0.29800
F1389       F  0.18209375  0.93544085  0.54360437    -0.19600
H1390       H  0.20322397  0.86420456  0.56843017     0.18200
H1391       H  0.08345539  0.86718539  0.48174356     0.18200
F1392       F  0.09768954  0.79484738  0.51327600    -0.19600
C1393       C  0.11672291  0.75713348  0.59576525    -0.21000
C1394       C  0.14937837  0.74801961  0.56948514    -0.09000
C1395       C  0.15964909  0.70580992  0.56952049     0.29800
C1396       C  0.13732792  0.67528406  0.59246548    -0.21000
C1397       C  0.10699405  0.68464408  0.62206906    -0.09100
C1398       C  0.09902153  0.72772304  0.62346858     0.29800
F1399       F  0.07510373  0.74299988  0.65315607    -0.19600
H1400       H  0.10679334  0.78849369  0.59831438     0.18200
H1401       H  0.14548821  0.64450176  0.58634749     0.18200
F1402       F  0.19190132  0.69349870  0.54744628    -0.19600
C1403       C  0.05993145  0.54035995  0.68005954    -0.21000
C1404       C  0.07799764  0.51897890  0.64922716    -0.09000
C1405       C  0.09139801  0.54181542  0.61365602     0.29800
C1406       C  0.08774839  0.58539713  0.61105726    -0.21000
C1407       C  0.07451628  0.60727786  0.64559189    -0.09100
C1408       C  0.05928789  0.58233478  0.67949026     0.29800
F1409       F  0.04913532  0.59702118  0.71635836    -0.19600
H1410       H  0.04663376  0.52425921  0.70638724     0.18200
H1411       H  0.09758110  0.60137134  0.58318726     0.18200
F1412       F  0.10794098  0.52229241  0.58152213    -0.19600
C1413       C  0.15222242  0.47828988  0.74504650    -0.21000
C1414       C  0.18129711  0.50078328  0.76724802    -0.09000
C1415       C  0.21502563  0.47478843  0.77884281     0.29800
C1416       C  0.21554893  0.43053580  0.77442426    -0.21000
C1417       C  0.18328997  0.40713889  0.75740500    -0.09100
C1418       C  0.15234613  0.43456155  0.74092770     0.29800
F1419       F  0.12092998  0.42099124  0.71913510    -0.19600
H1420       H  0.12799760  0.49452998  0.72950605     0.18200
H1421       H  0.24256988  0.41465746  0.78482247     0.18200
F1422       F  0.24932056  0.49149049  0.79296036    -0.19600
C1423       C  0.16651449  0.57949660  0.70665783    -0.21000
C1424       C  0.15791979  0.58186862  0.74851630    -0.09000
C1425       C  0.13748878  0.61883857  0.76025582     0.29800
C1426       C  0.11957467  0.64658951  0.73074553    -0.21000
C1427       C  0.12172157  0.63965328  0.68830500    -0.09100
C1428       C  0.15192847  0.60952164  0.67779841     0.29800
F1429       F  0.16425752  0.60472479  0.63867998    -0.19600
H1430       H  0.18523652  0.55476316  0.69613872     0.18200
H1431       H  0.10378414  0.67306591  0.74143667     0.18200
F1432       F  0.13436805  0.62786622  0.80080352    -0.19600
C1433       C  0.09533040  0.53885892  0.78535741    -0.21000
C1434       C  0.13177831  0.54344036  0.80808259    -0.09000
C1435       C  0.12646710  0.54630576  0.85144229     0.29800
C1436       C  0.09053331  0.53145887  0.86988835    -0.21000
C1437       C  0.06038378  0.51454894  0.84509395    -0.09100
C1438       C  0.05947284  0.52742843  0.80383564     0.29800
F1439       F  0.02721931  0.51913952  0.77972183    -0.19600
H1440       H  0.09449278  0.54357995  0.75246382     0.18200
H1441       H  0.08917132  0.52747785  0.90323222     0.18200
F1442       F  0.15544138  0.56044538  0.87654107    -0.19600
C1443       C  0.25316739  0.92498033  0.66136959    -0.21000
C1444       C  0.28824607  0.90272404  0.67398484    -0.09000
C1445       C  0.31521769  0.92783634  0.69636177     0.29800
C1446       C  0.31274909  0.97156027  0.69494560    -0.21000
C1447       C  0.28357641  0.99434530  0.67103580    -0.09100
C1448       C  0.25265294  0.96845256  0.65528652     0.29800
F1449       F  0.22409998  0.98276341  0.62853336    -0.19600
H1450       H  0.22784586  0.90901374  0.64893334     0.18200
H1451       H  0.33706540  0.98752064  0.70946742     0.18200
F1452       F  0.34326810  0.91089263  0.72220241    -0.19600
C1453       C  0.23124830  0.82810303  0.64490219    -0.21000
C1454       C  0.27146932  0.83050233  0.63243357    -0.09000
C1455       C  0.28237087  0.80357048  0.59999653     0.29800
C1456       C  0.25309513  0.78600732  0.57405705    -0.21000
C1457       C  0.21185604  0.78974615  0.58248128    -0.09100
C1458       C  0.20261927  0.80623847  0.62215506     0.29800
F1459       F  0.16453951  0.80756155  0.63642957    -0.19600
H1460       H  0.22159539  0.84343489  0.67225796     0.18200
H1461       H  0.26285174  0.77075724  0.54666661     0.18200
F1462       F  0.32165231  0.79706946  0.59093164    -0.19600
C1463       C  0.35955012  0.88987229  0.54539792    -0.21000
C1464       C  0.32716716  0.90733524  0.52213278    -0.09000
C1465       C  0.29049613  0.91212864  0.54096908     0.29800
C1466       C  0.28578586  0.89968250  0.58170864    -0.21000
C1467       C  0.31712769  0.88168712  0.60694585    -0.09100
C1468       C  0.35477526  0.87674718  0.58719922     0.29800
F1469       F  0.38589840  0.85630820  0.60567113    -0.19600
H1470       H  0.38878545  0.88640878  0.53120144     0.18200
H1471       H  0.25521906  0.90045613  0.59148406     0.18200
F1472       F  0.25845499  0.92820275  0.51967174    -0.19600
C1473       C  0.31920631  0.60480752  0.94409896    -0.21000
C1474       C  0.30924492  0.63705719  0.91556582    -0.09000
C1475       C  0.29478992  0.67327258  0.93449879     0.29800
C1476       C  0.29899143  0.67903773  0.97842185    -0.21000
C1477       C  0.31619731  0.64816611  0.00547868    -0.09100
C1478       C  0.32141168  0.60956510  0.98720911     0.29800
F1479       F  0.33400398  0.57668763  0.01075999    -0.19600
H1480       H  0.32819363  0.57563175  0.93293580     0.18200
H1481       H  0.29027927  0.70811071  0.99054493     0.18200
F1482       F  0.27859712  0.70413066  0.91040354    -0.19600
C1483       C  0.25229234  0.63023991  0.81787345    -0.21000
C1484       C  0.27482800  0.61065328  0.84947699    -0.09000
C1485       C  0.26079308  0.57072893  0.86199032     0.29800
C1486       C  0.22765710  0.55195335  0.84207315    -0.21000
C1487       C  0.20885395  0.56961151  0.80615335    -0.09100
C1488       C  0.22523746  0.60894244  0.79340800     0.29800
F1489       F  0.21831747  0.62753527  0.75579059    -0.19600
H1490       H  0.25831801  0.66170496  0.80860038     0.18200
H1491       H  0.21761918  0.52240563  0.85418351     0.18200
F1492       F  0.27886682  0.54877114  0.89313720    -0.19600
C1493       C  0.42312409  0.62189047  0.84738257    -0.21000
C1494       C  0.42096847  0.61258401  0.80542418    -0.09000
C1495       C  0.38738700  0.59018769  0.79247339     0.29800
C1496       C  0.35421310  0.58413516  0.81909563    -0.21000
C1497       C  0.35239520  0.60363358  0.85759989    -0.09100
C1498       C  0.39013326  0.61607147  0.87363599     0.29800
F1499       F  0.39318563  0.63135975  0.91186004    -0.19600
H1500       H  0.45003912  0.63539228  0.85985052     0.18200
H1501       H  0.32746796  0.57095625  0.80604198     0.18200
F1502       F  0.38498875  0.57706199  0.75318207    -0.19600
C1503       C  0.34711792  0.77633170  0.72745799    -0.21000
C1504       C  0.38732087  0.78688777  0.73704808    -0.09000
C1505       C  0.39947881  0.82478159  0.71747829     0.29800
C1506       C  0.37467004  0.84709151  0.68790109    -0.21000
C1507       C  0.33470850  0.83528379  0.67796607    -0.09100
C1508       C  0.32197314  0.79908116  0.70002119     0.29800
F1509       F  0.28334279  0.78617193  0.69897219    -0.19600
H1510       H  0.33110152  0.75339202  0.74490465     0.18200
H1511       H  0.38611743  0.87579679  0.67515389     0.18200
F1512       F  0.43383496  0.84295904  0.72987991    -0.19600
C1513       C  0.36560128  0.69735192  0.77604135    -0.21000
C1514       C  0.38730823  0.72696684  0.79727681    -0.09000
C1515       C  0.38401766  0.72191235  0.84123083     0.29800
C1516       C  0.35390740  0.69898881  0.86114644    -0.21000
C1517       C  0.32944547  0.67137541  0.84040474    -0.09100
C1518       C  0.33621177  0.67195965  0.79604802     0.29800
F1519       F  0.31753647  0.64529481  0.77137480    -0.19600
H1520       H  0.36979525  0.69512344  0.74296723     0.18200
H1521       H  0.35579746  0.69768500  0.89444636     0.18200
F1522       F  0.41407863  0.73279705  0.86634944    -0.19600
C1523       C  0.44819706  0.80218630  0.83205446    -0.21000
C1524       C  0.41302737  0.79730314  0.80869730    -0.09000
C1525       C  0.37674994  0.81297021  0.82614128     0.29800
C1526       C  0.37581884  0.82452837  0.86782743    -0.21000
C1527       C  0.40937316  0.81639174  0.89330623    -0.09100
C1528       C  0.44511784  0.80415141  0.87462788     0.29800
F1529       F  0.47518976  0.78742099  0.89804066    -0.19600
H1530       H  0.47768598  0.79623835  0.82000063     0.18200
H1531       H  0.34833970  0.83644203  0.88079123     0.18200
F1532       F  0.34149440  0.81282905  0.80494791    -0.19600
C1533       C  0.81489746  0.14801516  0.49810403    -0.21000
C1534       C  0.84245185  0.12198782  0.52097520    -0.09000
C1535       C  0.87262323  0.10458545  0.49511542     0.29800
C1536       C  0.87067153  0.10665069  0.45160154    -0.21000
C1537       C  0.83970906  0.12626852  0.42870442    -0.09100
C1538       C  0.81289649  0.14938075  0.45328642     0.29800
F1539       F  0.78543181  0.17441319  0.43400208    -0.19600
H1540       H  0.79371346  0.16639279  0.51484987     0.18200
H1541       H  0.89551644  0.09396746  0.43561612     0.18200
F1542       F  0.90607944  0.08589083  0.51101997    -0.19600
C1543       C  0.86391373  0.99818356  0.55571111    -0.21000
C1544       C  0.90527954  0.99683136  0.56214634    -0.09000
C1545       C  0.92283494  0.02688605  0.58643575     0.29800
C1546       C  0.90075060  0.06230644  0.59538785    -0.21000
C1547       C  0.86278032  0.06934336  0.57641321    -0.09100
C1548       C  0.84394304  0.03507532  0.55852112     0.29800
F1549       F  0.80820918  0.03828789  0.53832028    -0.19600
H1550       H  0.84903424  0.97434676  0.53907178     0.18200
H1551       H  0.91544502  0.08542477  0.61280290     0.18200
F1552       F  0.96247755  0.02473817  0.59652515    -0.19600
C1553       C  0.73180414  0.07520371  0.59384288    -0.21000
C1554       C  0.73260744  0.06455349  0.63709498    -0.09000
C1555       C  0.76937610  0.06954211  0.65734561     0.29800
C1556       C  0.80252452  0.08627089  0.63582733    -0.21000
C1557       C  0.80065392  0.10090162  0.59333913    -0.09100
C1558       C  0.76341777  0.09532086  0.57321457     0.29800
F1559       F  0.75813819  0.10344778  0.53226520    -0.19600
H1560       H  0.70569397  0.06864101  0.57521515     0.18200
H1561       H  0.83081857  0.08712206  0.65251249     0.18200
F1562       F  0.77382090  0.05715169  0.69766238    -0.19600
C1563       C  0.58447076  0.06701011  0.62851157    -0.21000
C1564       C  0.58569655  0.10983579  0.62497210    -0.09000
C1565       C  0.62203371  0.12986271  0.62495424     0.29800
C1566       C  0.65714871  0.10755223  0.62743374    -0.21000
C1567       C  0.65745760  0.06420710  0.63503611    -0.09100
C1568       C  0.61995157  0.04424454  0.63462020     0.29800
F1569       F  0.61719425  0.00362125  0.64376424    -0.19600
H1570       H  0.55591853  0.05148109  0.62696379     0.18200
H1571       H  0.68427262  0.12551958  0.62871635     0.18200
F1572       F  0.62355786  0.17137555  0.62172624    -0.19600
C1573       C  0.47958499  0.17160356  0.78450250    -0.21000
C1574       C  0.45879060  0.14824878  0.75445249    -0.09000
C1575       C  0.48759479  0.13448034  0.72418146     0.29800
C1576       C  0.53116430  0.13552290  0.72979662    -0.21000
C1577       C  0.55060189  0.15233217  0.76476137    -0.09100
C1578       C  0.52255599  0.17180375  0.79086289     0.29800
F1579       F  0.53641991  0.18797635  0.82598335    -0.19600
H1580       H  0.46298315  0.19059587  0.80460809     0.18200
H1581       H  0.54964683  0.12120474  0.70692906     0.18200
F1582       F  0.47442279  0.12130436  0.68738667    -0.19600
C1583       C  0.68943798  0.10591696  0.71069960    -0.21000
C1584       C  0.68225367  0.06415398  0.70305936    -0.09000
C1585       C  0.64719581  0.04824935  0.72276966     0.29800
C1586       C  0.61828141  0.07347242  0.74128231    -0.21000
C1587       C  0.62418359  0.11539284  0.74867406    -0.09100
C1588       C  0.66058230  0.13118478  0.73010071     0.29800
F1589       F  0.66808599  0.17199824  0.72802181    -0.19600
H1590       H  0.71473422  0.12104650  0.69591785     0.18200
H1591       H  0.59017561  0.05903798  0.74737836     0.18200
F1592       F  0.63654637  0.00892715  0.71775525    -0.19600
C1593       C  0.60180789  0.12579757  0.86090512    -0.21000
C1594       C  0.58732708  0.11532387  0.82133355    -0.09000
C1595       C  0.57466722  0.07513463  0.81980075     0.29800
C1596       C  0.60008365  0.04602321  0.83857289    -0.21000
C1597       C  0.62843863  0.05754483  0.86771818    -0.09100
C1598       C  0.62824188  0.09789015  0.88058327     0.29800
F1599       F  0.65726105  0.11174111  0.90603870    -0.19600
H1600       H  0.60330270  0.15736384  0.86948204     0.18200
H1601       H  0.60095910  0.01557090  0.82751792     0.18200
F1602       F  0.54358247  0.06434154  0.79519079    -0.19600
C1603       C  0.98325508  0.29839955  0.64595086    -0.21000
C1604       C  0.96207173  0.26173393  0.65411401    -0.09000
C1605       C  0.98832548  0.22820832  0.66678046     0.29800
C1606       C  0.03143203  0.22973810  0.66199541    -0.21000
C1607       C  0.05174800  0.26547156  0.64689455    -0.09100
C1608       C  0.02626753  0.30047256  0.64645776     0.29800
F1609       F  0.04353224  0.33723125  0.64984748    -0.19600
H1610       H  0.96617418  0.32636743  0.64212863     0.18200
H1611       H  0.04831509  0.20345213  0.67323956     0.18200
F1612       F  0.97277905  0.19351115  0.68453299    -0.19600
C1613       C  0.92229244  0.19070449  0.61220509    -0.21000
C1614       C  0.90178870  0.21206261  0.64385393    -0.09000
C1615       C  0.86454838  0.19454874  0.65526511     0.29800
C1616       C  0.84457305  0.16703946  0.62967244    -0.21000
C1617       C  0.86348561  0.14752132  0.59598875    -0.09100
C1618       C  0.90362883  0.16024174  0.58854526     0.29800
F1619       F  0.92474501  0.14530123  0.55667870    -0.19600
H1620       H  0.95091883  0.20185268  0.60085485     0.18200
H1621       H  0.81378581  0.16098502  0.63799133     0.18200
F1622       F  0.84814821  0.20095341  0.69278176    -0.19600
C1623       C  0.87682383  0.26271971  0.57874635    -0.21000
C1624       C  0.89418272  0.28384941  0.61197900    -0.09000
C1625       C  0.87797313  0.32403158  0.61555397     0.29800
C1626       C  0.83987619  0.33475853  0.59857093    -0.21000
C1627       C  0.81786794  0.30703319  0.57494344    -0.09100
C1628       C  0.83796754  0.27122501  0.56407974     0.29800
F1629       F  0.82144248  0.24533762  0.53700392    -0.19600
H1630       H  0.89218628  0.23830179  0.56416269     0.18200
H1631       H  0.82777745  0.36495694  0.60384161     0.18200
F1632       F  0.89676340  0.35151085  0.63906464    -0.19600
C1633       C  0.70793909  0.21858984  0.94989295    -0.21000
C1634       C  0.71132470  0.25450166  0.92358479    -0.09000
C1635       C  0.72220760  0.28997704  0.94572727     0.29800
C1636       C  0.72104850  0.29108738  0.98984828    -0.21000
C1637       C  0.70646369  0.25802230  0.01527248    -0.09100
C1638       C  0.70483392  0.22021330  0.99442641     0.29800
F1639       F  0.69912420  0.18459998  0.01641274    -0.19600
H1640       H  0.70366892  0.18933496  0.93607118     0.18200
H1641       H  0.72512904  0.32057105  0.00339120     0.18200
F1642       F  0.72713478  0.32639804  0.92486370    -0.19600
C1643       C  0.62045739  0.21714806  0.79277203    -0.21000
C1644       C  0.62703149  0.17511613  0.79649350    -0.09000
C1645       C  0.66432818  0.16309619  0.81743765     0.29800
C1646       C  0.68468669  0.18922491  0.84447511    -0.21000
C1647       C  0.67389039  0.23045429  0.84575213    -0.09100
C1648       C  0.64520560  0.24440895  0.81437099     0.29800
F1649       F  0.63869173  0.28494646  0.80678633    -0.19600
H1650       H  0.59660654  0.22880609  0.77271156     0.18200
H1651       H  0.70883606  0.17710751  0.86395923     0.18200
F1652       F  0.67836382  0.12407105  0.81598158    -0.19600
C1653       C  0.58132280  0.24208241  0.89536312    -0.21000
C1654       C  0.56831871  0.27647006  0.87293321    -0.09000
C1655       C  0.58911971  0.31357367  0.87744713     0.29800
C1656       C  0.62934985  0.31221669  0.88989464    -0.21000
C1657       C  0.64733584  0.27383922  0.89596591    -0.09100
C1658       C  0.62081147  0.24123880  0.90933152     0.29800
F1659       F  0.63447171  0.20439357  0.92399598    -0.19600
H1660       H  0.56390352  0.21419349  0.89610926     0.18200
H1661       H  0.64630601  0.33995457  0.89239823     0.18200
F1662       F  0.57235629  0.34994877  0.86533738    -0.19600
C1663       C  0.88393790  0.33849418  0.73734870    -0.21000
C1664       C  0.84277732  0.33224039  0.74703330    -0.09000
C1665       C  0.82404778  0.30466190  0.71997987     0.29800
C1666       C  0.84661747  0.28137716  0.69146642    -0.21000
C1667       C  0.88979335  0.27994373  0.69003822    -0.09100
C1668       C  0.90759679  0.30989154  0.71537591     0.29800
F1669       F  0.94791907  0.31438515  0.71758565    -0.19600
H1670       H  0.89879301  0.36534461  0.74812998     0.18200
H1671       H  0.82937258  0.26606428  0.66831240     0.18200
F1672       F  0.78336904  0.30206448  0.71820628    -0.19600
C1673       C  0.74348264  0.34834617  0.80623325    -0.21000
C1674       C  0.78003375  0.32816828  0.79701994    -0.09000
C1675       C  0.78043068  0.28527679  0.80706449     0.29800
C1676       C  0.75255766  0.26767399  0.83513760    -0.21000
C1677       C  0.71835439  0.28883610  0.84953451    -0.09100
C1678       C  0.71270867  0.32883090  0.83045104     0.29800
F1679       F  0.67754393  0.34918463  0.83228240    -0.19600
H1680       H  0.73870422  0.37974900  0.79549739     0.18200
H1681       H  0.75792614  0.23628385  0.84584586     0.18200
F1682       F  0.81252018  0.26181504  0.79691839    -0.19600
C1683       C  0.89020895  0.32937259  0.82523789    -0.21000
C1684       C  0.84849957  0.33777341  0.82757374    -0.09000
C1685       C  0.83074723  0.32121767  0.86481537     0.29800
C1686       C  0.84648102  0.28536666  0.88407238    -0.21000
C1687       C  0.88373453  0.26993881  0.87176999    -0.09100
C1688       C  0.90731299  0.29506172  0.84571831     0.29800
F1689       F  0.94684195  0.28672682  0.84003205    -0.19600
H1690       H  0.91048332  0.34897137  0.80836537     0.18200
H1691       H  0.82982765  0.27016212  0.90892852     0.18200
F1692       F  0.79552312  0.33592360  0.87932465    -0.19600
C1693       C  0.78085086  0.77969574  0.49406409    -0.21000
C1694       C  0.80477525  0.75201261  0.51915591    -0.09000
C1695       C  0.82793675  0.72424828  0.49536455     0.29800
C1696       C  0.82894697  0.72646062  0.45069022    -0.21000
C1697       C  0.80792516  0.75683789  0.42640455    -0.09100
C1698       C  0.78297424  0.78276512  0.45005087     0.29800
F1699       F  0.76333738  0.81483278  0.43097039    -0.19600
H1700       H  0.76332363  0.80326512  0.50825721     0.18200
H1701       H  0.85074871  0.70789494  0.43526533     0.18200
F1702       F  0.85382060  0.69792380  0.51518514    -0.19600
C1703       C  0.89461772  0.75206858  0.56700133    -0.21000
C1704       C  0.86145921  0.77972179  0.55809730    -0.09000
C1705       C  0.87057246  0.81226519  0.52951484     0.29800
C1706       C  0.90783329  0.81278923  0.50822222    -0.21000
C1707       C  0.93596619  0.78007064  0.51322297    -0.09100
C1708       C  0.93003721  0.75156587  0.54456984     0.29800
F1709       F  0.95583151  0.71934689  0.54907864    -0.19600
H1710       H  0.89233456  0.72559500  0.58678610     0.18200
H1711       H  0.91293481  0.83672880  0.48487754     0.18200
F1712       F  0.84209311  0.84054133  0.51827625    -0.19600
C1713       C  0.70456020  0.92807805  0.69370772    -0.21000
C1714       C  0.69636052  0.90826050  0.65636142    -0.09000
C1715       C  0.69859749  0.93414966  0.61997869     0.29800
C1716       C  0.69952980  0.97738790  0.62150606    -0.21000
C1717       C  0.69917527  0.99768004  0.65917774    -0.09100
C1718       C  0.70769421  0.97181675  0.69462069     0.29800
F1719       F  0.72130235  0.98879028  0.72947494    -0.19600
H1720       H  0.70857498  0.90993899  0.72211740     0.18200
H1721       H  0.70005022  0.99523535  0.59268231     0.18200
F1722       F  0.69884990  0.91734804  0.58227929    -0.19600
C1723       C  0.75520165  0.85340251  0.62064667    -0.21000
C1724       C  0.71458463  0.83855853  0.62432014    -0.09000
C1725       C  0.70933725  0.79997605  0.60560360     0.29800
C1726       C  0.74182646  0.77829603  0.58711712    -0.21000
C1727       C  0.78187726  0.79331516  0.58384412    -0.09100
C1728       C  0.78729718  0.83228048  0.60064553     0.29800
F1729       F  0.82420603  0.84963223  0.60006101    -0.19600
H1730       H  0.76355741  0.88155027  0.63474299     0.18200
H1731       H  0.73562090  0.74821630  0.57578978     0.18200
F1732       F  0.67388517  0.77987847  0.60916923    -0.19600
C1733       C  0.57258385  0.85411181  0.59933746    -0.21000
C1734       C  0.54925251  0.87737753  0.62696933    -0.09000
C1735       C  0.57020241  0.89731260  0.65766901     0.29800
C1736       C  0.61189257  0.89793893  0.65749898    -0.21000
C1737       C  0.63618925  0.87047718  0.63483462    -0.09100
C1738       C  0.61526811  0.85038854  0.60319518     0.29800
F1739       F  0.63542443  0.83263378  0.57230587    -0.19600
H1740       H  0.55815086  0.84132366  0.57270409     0.18200
H1741       H  0.62502858  0.91955938  0.67785896     0.18200
F1742       F  0.55082641  0.92112685  0.68494345    -0.19600
C1743       C  0.97374082  0.69183348  0.64425757    -0.21000
C1744       C  0.95407420  0.67424032  0.67945051    -0.09000
C1745       C  0.98078915  0.66709826  0.71354436     0.29800
C1746       C  0.02379407  0.66961043  0.70866988    -0.21000
C1747       C  0.04249521  0.67086851  0.66857392    -0.09100
C1748       C  0.01506521  0.68385070  0.63650057     0.29800
F1749       F  0.02732095  0.68651631  0.59646560    -0.19600
H1750       H  0.95536468  0.70251984  0.61877063     0.18200
H1751       H  0.04112851  0.66388483  0.73642457     0.18200
F1752       F  0.96625854  0.65491825  0.75109423    -0.19600
C1753       C  0.84581254  0.66197072  0.62703728    -0.21000
C1754       C  0.87546157  0.67771069  0.65438719    -0.09000
C1755       C  0.86959667  0.71925069  0.66358279     0.29800
C1756       C  0.84181924  0.74451680  0.64033555    -0.21000
C1757       C  0.82265450  0.73090005  0.60348331    -0.09100
C1758       C  0.82135478  0.68801712  0.60044478     0.29800
F1759       F  0.79845125  0.67146751  0.57069325    -0.19600
H1760       H  0.84507099  0.62945933  0.62285091     0.18200
H1761       H  0.84172903  0.77688068  0.64628467     0.18200
F1762       F  0.89265651  0.73656568  0.69275291    -0.19600
C1763       C  0.97370489  0.56920352  0.61421058    -0.21000
C1764       C  0.95347856  0.56997856  0.57601852    -0.09000
C1765       C  0.94071505  0.60971080  0.56427949     0.29800
C1766       C  0.92302190  0.63357814  0.59400478    -0.21000
C1767       C  0.92798640  0.62260516  0.63665981    -0.09100
C1768       C  0.95872040  0.59293556  0.64563921     0.29800
F1769       F  0.97261661  0.58556439  0.68476233    -0.19600
H1770       H  0.99571798  0.54640725  0.62284826     0.18200
H1771       H  0.90991786  0.66217022  0.58349234     0.18200
F1772       F  0.95204623  0.62808239  0.52804718    -0.19600
C1773       C  0.82350769  0.47259560  0.75521765    -0.21000
C1774       C  0.81812579  0.49228167  0.79370166    -0.09000
C1775       C  0.80325720  0.46430095  0.82506176     0.29800
C1776       C  0.80379717  0.42097733  0.82181498    -0.21000
C1777       C  0.81702460  0.40076755  0.78634914    -0.09100
C1778       C  0.82443201  0.42843502  0.75179493     0.29800
F1779       F  0.83211983  0.41334874  0.71412958    -0.19600
H1780       H  0.82752399  0.49103797  0.72717202     0.18200
H1781       H  0.79461920  0.40305406  0.84878160     0.18200
F1782       F  0.79100418  0.47789474  0.86162291    -0.19600
C1783       C  0.89121653  0.57779979  0.70486781    -0.21000
C1784       C  0.89562648  0.62085424  0.70860795    -0.09000
C1785       C  0.88236588  0.63538490  0.74696702     0.29800
C1786       C  0.86625688  0.60833639  0.77842411    -0.21000
C1787       C  0.86019040  0.56540180  0.77293187    -0.09100
C1788       C  0.87888817  0.55121158  0.73753318     0.29800
F1789       F  0.89185713  0.51233603  0.73681845    -0.19600
H1790       H  0.89884642  0.56282188  0.67701329     0.18200
H1791       H  0.85771638  0.62166712  0.80727036     0.18200
F1792       F  0.88445075  0.67588192  0.75427573    -0.19600
C1793       C  0.89413967  0.48610594  0.82748632    -0.21000
C1794       C  0.87286636  0.52217039  0.83691417    -0.09000
C1795       C  0.87394159  0.53001793  0.87934696     0.29800
C1796       C  0.86989936  0.49646516  0.90783096    -0.21000
C1797       C  0.87188268  0.45657337  0.89306490    -0.09100
C1798       C  0.89108721  0.45222800  0.85469626     0.29800
F1799       F  0.90318596  0.41536779  0.84154441    -0.19600
H1800       H  0.90342921  0.47970715  0.79671075     0.18200
H1801       H  0.86339328  0.50165907  0.94003223     0.18200
F1802       F  0.87337541  0.56891417  0.89261622    -0.19600
C1803       C  0.66849122  0.63414296  0.94967835    -0.21000
C1804       C  0.70252349  0.64365107  0.92506315    -0.09000
C1805       C  0.73424376  0.66308491  0.94706440     0.29800
C1806       C  0.73527181  0.66378660  0.99146175    -0.21000
C1807       C  0.70392686  0.64692592  0.01624242    -0.09100
C1808       C  0.66869964  0.63724309  0.99360934     0.29800
F1809       F  0.63496028  0.62743048  0.01489583    -0.19600
H1810       H  0.64176964  0.62275940  0.93510803     0.18200
H1811       H  0.76130656  0.67657186  0.00623082     0.18200
F1812       F  0.76541081  0.68027801  0.92589715    -0.19600
C1813       C  0.78303128  0.59523200  0.80129571    -0.21000
C1814       C  0.80360073  0.56544843  0.82697102    -0.09000
C1815       C  0.79484039  0.56899742  0.86998476     0.29800
C1816       C  0.77312361  0.60195238  0.88552061    -0.21000
C1817       C  0.74905599  0.62849123  0.86010169    -0.09100
C1818       C  0.75862615  0.62695085  0.81696702     0.29800
F1819       F  0.74065249  0.65243523  0.78839272    -0.19600
H1820       H  0.78617127  0.59443200  0.76798530     0.18200
H1821       H  0.76742106  0.59940182  0.91839620     0.18200
F1822       F  0.80055464  0.53827582  0.89845312    -0.19600
C1823       C  0.69932784  0.54903589  0.80461198    -0.21000
C1824       C  0.71071005  0.51535992  0.82957582    -0.09000
C1825       C  0.70862154  0.51886866  0.87311546     0.29800
C1826       C  0.69783921  0.55637394  0.89031911    -0.21000
C1827       C  0.68875277  0.59122266  0.86449589    -0.09100
C1828       C  0.68417332  0.58410064  0.82129480     0.29800
F1829       F  0.67286116  0.61359675  0.79285837    -0.19600
H1830       H  0.69908649  0.54743383  0.77116174     0.18200
H1831       H  0.70112038  0.55919397  0.92341300     0.18200
F1832       F  0.71803786  0.48656750  0.89910545    -0.19600
C1833       C  0.52780829  0.76724390  0.73947217    -0.21000
C1834       C  0.54864316  0.74776745  0.77393654    -0.09000
C1835       C  0.52173110  0.72358700  0.79969385     0.29800
C1836       C  0.47904773  0.72427949  0.79466158    -0.21000
C1837       C  0.45810530  0.74966943  0.76500682    -0.09100
C1838       C  0.48456607  0.76768268  0.73466371     0.29800
F1839       F  0.46951441  0.78409968  0.69868495    -0.19600
H1840       H  0.54479514  0.78372109  0.71582621     0.18200
H1841       H  0.46214158  0.70724935  0.81780558     0.18200
F1842       F  0.53454201  0.70185704  0.83380831    -0.19600
C1843       C  0.64411235  0.76705192  0.71884810    -0.21000
C1844       C  0.61646865  0.78378400  0.74693504    -0.09000
C1845       C  0.61458151  0.82692206  0.74569495     0.29800
C1846       C  0.64372943  0.85114291  0.72435878    -0.21000
C1847       C  0.67012235  0.83535850  0.69402982    -0.09100
C1848       C  0.67203532  0.79164544  0.69595243     0.29800
F1849       F  0.70479803  0.77183015  0.68187658    -0.19600
H1850       H  0.64769805  0.73413712  0.71818515     0.18200
H1851       H  0.64298702  0.88332172  0.72963818     0.18200
F1852       F  0.58556642  0.84574039  0.76745156    -0.19600
C1853       C  0.61235286  0.68276882  0.81442375    -0.21000
C1854       C  0.62659301  0.71938624  0.79607269    -0.09000
C1855       C  0.66921364  0.72555282  0.80258019     0.29800
C1856       C  0.69239741  0.70099160  0.83069469    -0.21000
C1857       C  0.67629651  0.66706583  0.85217260    -0.09100
C1858       C  0.63454965  0.65990781  0.84490245     0.29800
F1859       F  0.61603354  0.62749974  0.86367631    -0.19600
H1860       H  0.58426510  0.67076317  0.80434797     0.18200
H1861       H  0.72369612  0.70863188  0.83534421     0.18200
F1862       F  0.68912242  0.75778171  0.78500352    -0.19600
C1863       C  0.63699531  0.79987209  0.83403039    -0.21000
C1864       C  0.59984255  0.78100200  0.82524242    -0.09000
C1865       C  0.57966372  0.76591147  0.86093160     0.29800
C1866       C  0.60098860  0.75346467  0.89680735    -0.21000
C1867       C  0.64229227  0.76160618  0.90008467    -0.09100
C1868       C  0.65931487  0.78732527  0.86895276     0.29800
F1869       F  0.69840838  0.79883348  0.87065463    -0.19600
H1870       H  0.65343703  0.81719905  0.81075504     0.18200
H1871       H  0.58454693  0.74063638  0.92307563     0.18200
F1872       F  0.53936710  0.76939450  0.86336659    -0.19600
loop_ 
_geom_bond_atom_site_label_1 
_geom_bond_atom_site_label_2 
_geom_bond_distance 
_geom_bond_site_symmetry_2 
_ccdc_geom_bond_type 
C1         C1834   1.657       .  S
C1         C1844   1.602       .  S
C1         C1854   1.613       .  S
C1         C1864   1.575       .  S
In2           O4   2.173       .  S
In2           O5   2.270   1_556  S
In2          O13   2.241       .  S
In2           O7   2.217       .  S
In2           O9   2.228       .  S
In2          O10   2.249   1_556  S
In2          O11   2.236       .  S
In2          O14   2.130   1_556  S
C3            O9   1.260       .  A
C3           O11   1.257       .  A
C3          C134   1.448       .  S
O4           C12   1.265       .  A
O5           C12   1.270   1_554  A
C6           O13   1.260       .  A
C6            O7   1.261       .  A
C6         C1867   1.487       .  S
C8           O10   1.271       .  A
C8           O14   1.251       .  A
C8          C381   1.439       .  S
C12         C180   1.457       .  S
In15         O17   2.225       .  S
In15         O18   2.226       .  S
In15         O26   2.256       .  S
In15         O20   2.226       .  S
In15         O22   2.250       .  S
In15         O23   2.230       .  S
In15         O24   2.159       .  S
In15         O27   2.268       .  S
C16          O22   1.269       .  A
C16          O24   1.252       .  A
C16         C105   1.441       .  S
O17          C25   1.260       .  A
O18          C25   1.268       .  A
C19          O26   1.252       .  A
C19          O20   1.267       .  A
C19        C1824   1.492       .  S
C21          O23   1.267       .  A
C21          O27   1.265       .  A
C21         C184   1.473       .  S
C25         C403   1.450       .  S
C28        C1804   1.617       .  S
C28        C1817   1.601       .  S
C28        C1827   1.565       .  S
C28        C1857   1.582       .  S
C29        C1774   1.658       .  S
C29        C1787   1.611       .  S
C29        C1794   1.573       .  S
C29        C1814   1.624       .  S
In30         O32   2.287       .  S
In30         O33   2.149       .  S
In30         O41   2.222       .  S
In30         O35   2.166       .  S
In30         O37   2.226   1_556  S
In30         O38   2.189       .  S
In30         O39   2.184       .  S
In30         O42   2.225       .  S
C31          O37   1.264       .  A
C31          O39   1.250   1_554  A
C31         C414   1.433       .  S
O32          C40   1.277       .  A
O33          C40   1.252       .  A
C34          O41   1.269       .  A
C34          O35   1.261       .  A
C34        C1797   1.478       .  S
C36          O38   1.254       .  A
C36          O42   1.254       .  A
C36         C213   1.420       .  S
C40          C96   1.463       .  S
In43         O45   2.263       .  S
In43         O46   2.206       .  S
In43         O54   2.315       .  S
In43         O48   2.183       .  S
In43         O50   2.252       .  S
In43         O51   2.194       .  S
In43         O52   2.270       .  S
In43         O55   2.260       .  S
C44          O50   1.256       .  A
C44          O52   1.259       .  A
C44         C371   1.466       .  S
O45          C53   1.253       .  A
O46          C53   1.247       .  A
C47          O54   1.263       .  A
C47          O48   1.249       .  A
C47        C1764   1.483       .  S
C49          O51   1.263       .  A
C49          O55   1.267       .  A
C49         C114   1.458       .  S
C53         C235   1.461       .  S
C56        C1744   1.620       .  S
C56        C1754   1.607       .  S
C56        C1767   1.556       .  S
C56        C1784   1.605       .  S
In57         O59   2.257   1_565  S
In57         O60   2.209   1_565  S
In57         O68   2.229       .  S
In57         O62   2.219       .  S
In57         O64   2.171       .  S
In57         O65   2.217       .  S
In57         O66   2.179       .  S
In57         O69   2.132       .  S
C58          O64   1.272       .  A
C58          O66   1.262       .  A
C58         C203   1.434       .  S
O59          C67   1.279       .  A
O60          C67   1.262       .  A
C61          O68   1.265       .  A
C61          O62   1.280       .  A
C61        C1734   1.505       .  S
C63          O65   1.262       .  A
C63          O69   1.259       .  A
C63         C352   1.439       .  S
C67         C151   1.477       .  S
C70        C1714   1.608       .  S
C70        C1724   1.646       .  S
C70        C1737   1.600       .  S
C70        C1847   1.624       .  S
C71        C1694   1.627       .  S
C71        C1704   1.598       .  S
C71        C1727   1.617       .  S
C71        C1757   1.602       .  S
In72         O74   2.234       .  S
In72         O75   2.165   1_455  S
In72         O83   2.145   1_455  S
In72         O77   2.265       .  S
In72         O79   2.134       .  S
In72         O80   2.233       .  S
In72         O81   2.258       .  S
In72         O84   2.144       .  S
C73          O79   1.262       .  A
C73          O81   1.285       .  A
C73         C246   1.449       .  S
O74          C82   1.274       .  A
O75          C82   1.259   1_655  A
C76          O83   1.255       .  A
C76          O77   1.287   1_655  A
C76        C1707   1.484       .  S
C78          O80   1.263       .  A
C78          O84   1.260       .  A
C78         C157   1.418   1_455  S
C82         C348   1.465       .  S
C85        C1664   1.632       .  S
C85        C1674   1.605       .  S
C85        C1684   1.604       .  S
C85        C1777   1.628       .  S
In86         O88   2.168       .  S
In86         O89   2.266       .  S
In86         O97   2.224       .  S
In86         O91   2.190       .  S
In86         O93   2.261       .  S
In86         O94   2.257   1_556  S
In86         O95   2.149       .  S
In86         O98   2.207       .  S
C87          O93   1.280       .  A
C87          O95   1.267       .  A
C87         C274   1.461       .  S
O88          C96   1.275       .  A
O89          C96   1.274       .  A
C90          O97   1.286       .  A
C90          O91   1.275       .  A
C90        C1687   1.473       .  S
C92          O94   1.279       .  A
C92          O98   1.262   1_554  A
C92         C437   1.467       .  S
In99        O101   2.234       .  S
In99        O102   2.239       .  S
In99        O110   2.235       .  S
In99        O104   2.156       .  S
In99        O106   2.211       .  S
In99        O107   2.220       .  S
In99        O108   2.253       .  S
In99        O111   2.174       .  S
C100        O106   1.255       .  A
C100        O108   1.249       .  A
C100        C259   1.458       .  S
O101        C109   1.259       .  A
O102        C109   1.262       .  A
C103        O110   1.254       .  A
C103        O104   1.259       .  A
C103       C1654   1.457       .  S
C105        O107   1.267       .  A
C105        O111   1.272       .  A
C109        C473   1.456       .  S
C112       C1634   1.623       .  S
C112       C1647   1.601       .  S
C112       C1657   1.551       .  S
C112       C1677   1.603       .  S
In113       O115   2.248       .  S
In113       O116   2.178       .  S
In113       O124   2.248       .  S
In113       O118   2.258       .  S
In113       O120   2.199       .  S
In113       O121   2.268       .  S
In113       O122   2.268       .  S
In113       O125   2.298       .  S
C114        O120   1.263       .  A
C114        O122   1.266       .  A
O115        C123   1.260       .  A
O116        C123   1.267       .  A
C117        O124   1.267       .  A
C117        O118   1.255       .  A
C117       C1627   1.499       .  S
C119        O121   1.254       .  A
C119        O125   1.258       .  A
C119        C422   1.487       .  S
C123        C305   1.440       .  S
C126       C1604   1.635       .  S
C126       C1614   1.613       .  S
C126       C1624   1.605       .  S
C126       C1667   1.636       .  S
C127       C1577   1.646       .  S
C127       C1587   1.633       .  S
C127       C1594   1.566       .  S
C127       C1644   1.608       .  S
In128       O130   2.261       .  S
In128       O131   2.243       .  S
In128       O139   2.209   1_565  S
In128       O133   2.211       .  S
In128       O135   2.270   1_565  S
In128       O136   2.226       .  S
In128       O137   2.246       .  S
In128       O140   2.212       .  S
C129        O135   1.256   1_565  A
C129        O137   1.258       .  A
C129        C498   1.471   1_565  S
O130        C138   1.257       .  A
O131        C138   1.251       .  A
C132        O139   1.260       .  A
C132        O133   1.264   1_545  A
C132       C1597   1.440       .  S
C134        O136   1.264       .  A
C134        O140   1.264       .  A
C138        C292   1.473       .  S
In141       O143   2.265       .  S
In141       O144   2.231       .  S
In141       O152   2.123       .  S
In141       O146   2.202       .  S
In141       O148   2.270       .  S
In141       O149   2.265       .  S
In141       O150   2.186       .  S
In141       O153   2.187       .  S
C142        O148   1.273       .  A
C142        O150   1.270       .  A
C142        C483   1.470       .  S
O143        C151   1.268       .  A
O144        C151   1.274       .  A
C145        O152   1.268       .  A
C145        O146   1.286       .  A
C145       C1564   1.430       .  S
C147        O149   1.276       .  A
C147        O153   1.263       .  A
C147        C310   1.471       .  S
C154       C1554   1.575       .  S
C154       C1567   1.553       .  S
C154       C1584   1.595       .  S
C154       C1717   1.597   1_545  S
C155       C1534   1.636       .  S
C155       C1547   1.558       .  S
C155       C1557   1.589       .  S
C155       C1617   1.609       .  S
In156       O158   2.265       .  S
In156       O159   2.252       .  S
In156       O167   2.170       .  S
In156       O161   2.222       .  S
In156       O163   2.123       .  S
In156       O164   2.154   1_565  S
In156       O165   2.187   1_655  S
In156       O168   2.207   1_565  S
C157        O163   1.264       .  A
C157        O165   1.272   1_655  A
O158        C166   1.272       .  A
O159        C166   1.265       .  A
C160        O167   1.273       .  A
C160        O161   1.268       .  A
C160       C1544   1.470       .  S
C162        O164   1.259       .  A
C162        O168   1.275       .  A
C162        C325   1.441       .  S
C166        C460   1.489       .  S
C169       C1504   1.616       .  S
C169       C1514   1.624       .  S
C169       C1524   1.565       .  S
C169       C1837   1.641       .  S
In170       O172   2.231       .  S
In170       O173   2.258   1_556  S
In170       O181   2.240       .  S
In170       O175   2.238       .  S
In170       O177   2.223   1_556  S
In170       O178   2.227       .  S
In170       O179   2.215       .  S
In170       O182   2.251       .  S
C171        O177   1.268       .  A
C171        O179   1.262   1_554  A
C171        C610   1.452       .  S
O172        C180   1.261       .  A
O173        C180   1.255   1_554  A
C174        O181   1.269       .  A
C174        O175   1.258       .  A
C174       C1527   1.476       .  S
C176        O178   1.243       .  A
C176        O182   1.261       .  A
C176        C283   1.438       .  S
In183       O185   2.195       .  S
In183       O186   2.242       .  S
In183       O194   2.224       .  S
In183       O188   2.265       .  S
In183       O190   2.235       .  S
In183       O191   2.200       .  S
In183       O192   2.258       .  S
In183       O195   2.170       .  S
C184        O190   1.254       .  A
C184        O192   1.254       .  A
O185        C193   1.260       .  A
O186        C193   1.273       .  A
C187        O194   1.257       .  A
C187        O188   1.255       .  A
C187       C1494   1.492       .  S
C189        O191   1.264       .  A
C189        O195   1.275       .  A
C189        C254   1.433       .  S
C193        C641   1.456       .  S
C196       C1474   1.618       .  S
C196       C1484   1.594       .  S
C196       C1497   1.568       .  S
C196       C1517   1.614       .  S
In197       O199   2.187   1_565  S
In197       O200   2.309   1_565  S
In197       O208   2.207       .  S
In197       O202   2.226       .  S
In197       O204   2.206       .  S
In197       O205   2.172       .  S
In197       O206   2.205       .  S
In197       O209   2.264       .  S
C198        O204   1.256       .  A
C198        O206   1.255       .  A
C198        C595   1.449       .  S
O199        C207   1.260       .  A
O200        C207   1.273       .  A
C201        O208   1.254       .  A
C201        O202   1.277       .  A
C201       C1464   1.466       .  S
C203        O205   1.244       .  A
C203        O209   1.255       .  A
C207        C319   1.480       .  S
C210       C1444   1.637       .  S
C210       C1454   1.606       .  S
C210       C1467   1.572       .  S
C210       C1507   1.614       .  S
C211       C1414   1.673       .  S
C211       C1424   1.587       .  S
C211       C1434   1.580       .  S
C211       C1487   1.619       .  S
In212       O214   2.243       .  S
In212       O215   2.186       .  S
In212       O223   2.179       .  S
In212       O217   2.221       .  S
In212       O219   2.132   1_455  S
In212       O220   2.262       .  S
In212       O221   2.172       .  S
In212       O224   2.151       .  S
C213        O219   1.269       .  A
C213        O221   1.274   1_655  A
O214        C222   1.277       .  A
O215        C222   1.265       .  A
C216        O223   1.283       .  A
C216        O217   1.271       .  A
C216       C1437   1.478       .  S
C218        O220   1.265       .  A
C218        O224   1.263       .  A
C218        C661   1.468       .  S
C222        C278   1.463       .  S
In225       O227   2.189   1_455  S
In225       O228   2.243   1_455  S
In225       O236   2.199       .  S
In225       O230   2.252       .  S
In225       O232   2.151   1_455  S
In225       O233   2.225       .  S
In225       O234   2.183       .  S
In225       O237   2.145       .  S
C226        O232   1.258       .  A
C226        O234   1.271   1_655  A
C226        C301   1.427       .  S
O227        C235   1.270       .  A
O228        C235   1.273       .  A
C229        O236   1.269       .  A
C229        O230   1.255       .  A
C229       C1404   1.495       .  S
C231        O233   1.262       .  A
C231        O237   1.261       .  A
C231        C646   1.424       .  S
C238       C1397   1.635       .  S
C238       C1407   1.581       .  S
C238       C1427   1.606       .  S
C238       C1747   1.644       .  S
C239       C1374   1.645       .  S
C239       C1384   1.565       .  S
C239       C1394   1.609       .  S
C239       C1457   1.597       .  S
In240       O242   2.212       .  S
In240       O243   2.226       .  S
In240       O251   2.234       .  S
In240       O245   2.200       .  S
In240       O247   2.261       .  S
In240       O248   2.273       .  S
In240       O249   2.180       .  S
In240       O252   2.193       .  S
C241        O247   1.262       .  A
C241        O249   1.265       .  A
C241        C330   1.449   1_565  S
O242        C250   1.254       .  A
O243        C250   1.254       .  A
C244        O251   1.268       .  A
C244        O245   1.260       .  A
C244       C1387   1.467       .  S
C246        O248   1.256       .  A
C246        O252   1.260       .  A
C250        C628   1.462       .  S
In253       O255   2.260       .  S
In253       O256   2.208       .  S
In253       O264   2.236       .  S
In253       O258   2.244       .  S
In253       O260   2.126       .  S
In253       O261   2.166       .  S
In253       O262   2.224       .  S
In253       O265   2.253       .  S
C254        O260   1.252       .  A
C254        O262   1.279       .  A
O255        C263   1.268       .  A
O256        C263   1.269       .  A
C257        O264   1.261       .  A
C257        O258   1.264       .  A
C257       C1367   1.498       .  S
C259        O261   1.270       .  A
C259        O265   1.267       .  A
C263        C529   1.466       .  S
C266       C1334   1.629       .  S
C266       C1344   1.628       .  S
C266       C1357   1.654       .  S
C266       C1364   1.556       .  S
C267       C1314   1.622       .  S
C267       C1324   1.610       .  S
C267       C1354   1.639       .  S
C267       C1417   1.686       .  S
In268       O270   2.249       .  S
In268       O271   2.284       .  S
In268       O279   2.237       .  S
In268       O273   2.231       .  S
In268       O275   2.270       .  S
In268       O276   2.256   1_455  S
In268       O277   2.193       .  S
In268       O280   2.260       .  S
C269        O275   1.267       .  A
C269        O277   1.266       .  A
C269        C512   1.453       .  S
O270        C278   1.254       .  A
O271        C278   1.255       .  A
C272        O279   1.260       .  A
C272        O273   1.267       .  A
C272       C1327   1.497       .  S
C274        O276   1.255       .  A
C274        O280   1.255   1_655  A
C281       C1294   1.625       .  S
C281       C1307   1.574       .  S
C281       C1347   1.662       .  S
C281       C1574   1.690       .  S
In282       O284   2.277       .  S
In282       O285   2.247       .  S
In282       O293   2.222       .  S
In282       O287   2.197       .  S
In282       O289   2.168       .  S
In282       O290   2.261       .  S
In282       O291   2.188       .  S
In282       O294   2.198       .  S
C283        O289   1.256       .  A
C283        O291   1.267       .  A
O284        C292   1.261       .  A
O285        C292   1.252       .  A
C286        O293   1.280       .  A
C286        O287   1.256       .  A
C286       C1304   1.470       .  S
C288        O290   1.251       .  A
C288        O294   1.241       .  A
C288        C535   1.426   1_565  S
In295       O297   2.190       .  S
In295       O298   2.202       .  S
In295       O306   2.201       .  S
In295       O300   2.239   1_655  S
In295       O302   2.175       .  S
In295       O303   2.226       .  S
In295       O304   2.259       .  S
In295       O307   2.161       .  S
C296        O302   1.262       .  A
C296        O304   1.254       .  A
C296        C567   1.439       .  S
O297        C305   1.253       .  A
O298        C305   1.257       .  A
C299        O306   1.263   1_455  A
C299        O300   1.260       .  A
C299       C1284   1.473       .  S
C301        O303   1.260       .  A
C301        O307   1.259       .  A
C308       C1277   1.597       .  S
C308       C1287   1.561       .  S
C308       C1317   1.608       .  S
C308       C1607   1.641       .  S
In309       O311   2.259       .  S
In309       O312   2.247       .  S
In309       O320   2.133       .  S
In309       O314   2.221       .  S
In309       O316   2.261       .  S
In309       O317   2.193       .  S
In309       O318   2.253       .  S
In309       O321   2.218       .  S
C310        O316   1.251       .  A
C310        O318   1.263       .  A
O311        C319   1.257       .  A
O312        C319   1.256       .  A
C313        O320   1.262       .  A
C313        O314   1.268       .  A
C313       C1264   1.436       .  S
C315        O317   1.266       .  A
C315        O321   1.266       .  A
C315        C548   1.445       .  S
C322       C1257   1.627       .  S
C322       C1267   1.531       .  S
C322       C1297   1.640       .  S
C322       C1447   1.623   1_545  S
C323       C1237   1.613       .  S
C323       C1247   1.567       .  S
C323       C1254   1.594       .  S
C323       C1274   1.576       .  S
In324       O326   2.319       .  S
In324       O327   2.263   1_455  S
In324       O335   2.259       .  S
In324       O329   2.262       .  S
In324       O331   2.162   1_455  S
In324       O332   2.255       .  S
In324       O333   2.239   1_455  S
In324       O336   2.207       .  S
C325        O331   1.258       .  A
C325        O333   1.254       .  A
O326        C334   1.258       .  A
O327        C334   1.253   1_655  A
C328        O335   1.253       .  A
C328        O329   1.269       .  A
C328       C1244   1.482       .  S
C330        O332   1.256       .  A
C330        O336   1.258       .  A
C334        C586   1.495       .  S
C337       C1204   1.576       .  S
C337       C1214   1.641       .  S
C337       C1224   1.574       .  S
C337       C1697   1.619       .  S
In338       O340   2.251   1_655  S
In338       O341   2.210       .  S
In338       O349   2.246       .  S
In338       O343   2.280       .  S
In338       O345   2.261       .  S
In338       O346   2.251   1_655  S
In338       O347   2.260       .  S
In338       O350   2.277   1_655  S
C339        O345   1.257       .  A
C339        O347   1.262       .  A
C339        C456   1.466       .  S
O340        C348   1.254       .  A
O341        C348   1.251   1_655  A
C342        O349   1.249       .  A
C342        O343   1.263       .  A
C342       C1227   1.477       .  S
C344        O346   1.261       .  A
C344        O350   1.264       .  A
C344        C619   1.482       .  S
In351       O353   2.187   1_565  S
In351       O354   2.214   1_565  S
In351       O362   2.157       .  S
In351       O356   2.194       .  S
In351       O358   2.208       .  S
In351       O359   2.209       .  S
In351       O360   2.208       .  S
In351       O363   2.233       .  S
C352        O358   1.250       .  A
C352        O360   1.257       .  A
O353        C361   1.272       .  A
O354        C361   1.271       .  A
C355        O362   1.260       .  A
C355        O356   1.275       .  A
C355       C1197   1.470       .  S
C357        O359   1.270       .  A
C357        O363   1.256       .  A
C357        C590   1.437       .  S
C361        C487   1.448       .  S
C364       C1174   1.645       .  S
C364       C1184   1.634       .  S
C364       C1194   1.587       .  S
C364       C1207   1.579       .  S
In365       O367   2.301       .  S
In365       O368   2.223       .  S
In365       O376   2.197       .  S
In365       O370   2.222       .  S
In365       O372   2.172       .  S
In365       O373   2.245       .  S
In365       O374   2.191       .  S
In365       O377   2.260       .  S
C366        O372   1.266       .  A
C366        O374   1.267       .  A
C366        C427   1.429       .  S
O367        C375   1.264       .  A
O368        C375   1.253       .  A
C369        O376   1.257       .  A
C369        O370   1.259       .  A
C369       C1164   1.472       .  S
C371        O373   1.256       .  A
C371        O377   1.247       .  A
C375        C655   1.474       .  S
C378       C1144   1.636       .  S
C378       C1154   1.587       .  S
C378       C1167   1.560       .  S
C378       C1217   1.627       .  S
C379       C1114   1.612       .  S
C379       C1124   1.672       .  S
C379       C1134   1.573       .  S
C379       C1187   1.653       .  S
In380       O382   2.226       .  S
In380       O383   2.275       .  S
In380       O391   2.219       .  S
In380       O385   2.215       .  S
In380       O387   2.250       .  S
In380       O388   2.269       .  S
In380       O389   2.186       .  S
In380       O392   2.256       .  S
C381        O387   1.256       .  A
C381        O389   1.260       .  A
O382        C390   1.264       .  A
O383        C390   1.270       .  A
C384        O391   1.260       .  A
C384        O385   1.261       .  A
C384       C1137   1.492       .  S
C386        O388   1.260       .  A
C386        O392   1.252       .  A
C386        C493   1.467       .  S
C390        C614   1.467       .  S
In393       O395   2.216   1_554  S
In393       O396   2.259   1_554  S
In393       O404   2.213       .  S
In393       O398   2.226       .  S
In393       O400   2.225   1_554  S
In393       O401   2.170       .  S
In393       O402   2.178       .  S
In393       O405   2.195   1_554  S
C394        O400   1.263   1_554  A
C394        O402   1.259       .  A
C394        C637   1.427       .  S
O395        C403   1.251       .  A
O396        C403   1.271       .  A
C397        O404   1.267       .  A
C397        O398   1.256       .  A
C397       C1104   1.478       .  S
C399        O401   1.254       .  A
C399        O405   1.259   1_554  A
C399        C464   1.425       .  S
C406       C1094   1.600       .  S
C406       C1107   1.566       .  S
C406       C1127   1.621       .  S
C406       C1807   1.611       .  S
C407       C1074   1.623       .  S
C407       C1084   1.567       .  S
C407       C1097   1.578       .  S
C407       C1157   1.606       .  S
In408       O410   2.304       .  S
In408       O411   2.198       .  S
In408       O419   2.222       .  S
In408       O413   2.219       .  S
In408       O415   2.191       .  S
In408       O416   2.230   1_455  S
In408       O417   2.231       .  S
In408       O420   2.186   1_455  S
C409        O415   1.266       .  A
C409        O417   1.258       .  A
C409        C666   1.448   1_554  S
O410        C418   1.269       .  A
O411        C418   1.259       .  A
C412        O419   1.270       .  A
C412        O413   1.257       .  A
C412       C1087   1.472   1_455  S
C414        O416   1.254       .  A
C414        O420   1.260       .  A
C418        C446   1.476       .  S
In421       O423   2.262       .  S
In421       O424   2.259       .  S
In421       O432   2.198       .  S
In421       O426   2.188       .  S
In421       O428   2.258       .  S
In421       O429   2.171       .  S
In421       O430   2.271       .  S
In421       O433   2.194       .  S
C422        O428   1.258       .  A
C422        O430   1.258       .  A
O423        C431   1.256       .  A
O424        C431   1.262       .  A
C425        O432   1.259       .  A
C425        O426   1.265       .  A
C425       C1064   1.435       .  S
C427        O429   1.267       .  A
C427        O433   1.267       .  A
C431        C571   1.492       .  S
C434       C1034   1.649       .  S
C434       C1044   1.571       .  S
C434       C1054   1.617       .  S
C434       C1067   1.549       .  S
C435       C1017   1.618       .  S
C435       C1027   1.547       .  S
C435       C1057   1.626       .  S
C435       C1077   1.630       .  S
In436       O438   2.164       .  S
In436       O439   2.275       .  S
In436       O447   2.190   1_455  S
In436       O441   2.081   1_455  S
In436       O443   2.232   1_455  S
In436       O444   2.206       .  S
In436       O445   2.282   1_455  S
In436       O448   2.163       .  S
C437        O443   1.251       .  A
C437        O445   1.272       .  A
O438        C446   1.271       .  A
O439        C446   1.289       .  A
C440        O447   1.288       .  A
C440        O441   1.269       .  A
C440       C1024   1.434       .  S
C442        O444   1.279       .  A
C442        O448   1.270       .  A
C442        C507   1.444   1_554  S
C449        C994   1.607       .  S
C449       C1004   1.588       .  S
C449       C1047   1.584       .  S
C449       C1537   1.610       .  S
In450       O452   2.323       .  S
In450       O453   2.265       .  S
In450       O461   2.205       .  S
In450       O455   2.211   1_565  S
In450       O457   2.185   1_565  S
In450       O458   2.277       .  S
In450       O459   2.175       .  S
In450       O462   2.242       .  S
C451        O457   1.270       .  A
C451        O459   1.267   1_545  A
C451        C582   1.429   1_655  S
O452        C460   1.259       .  A
O453        C460   1.248       .  A
C454        O461   1.259   1_545  A
C454        O455   1.256       .  A
C454       C1007   1.461       .  S
C456        O458   1.257       .  A
C456        O462   1.247       .  A
In463       O465   2.238       .  S
In463       O466   2.213       .  S
In463       O474   2.247   1_556  S
In463       O468   2.224       .  S
In463       O470   2.174   1_556  S
In463       O471   2.214       .  S
In463       O472   2.201       .  S
In463       O475   2.168   1_556  S
C464        O470   1.258       .  A
C464        O472   1.264   1_554  A
O465        C473   1.269       .  A
O466        C473   1.263       .  A
C467        O474   1.259       .  A
C467        O468   1.266   1_554  A
C467        C984   1.494       .  S
C469        O471   1.260       .  A
C469        O475   1.252   1_556  A
C469        C520   1.430       .  S
C476        C974   1.609       .  S
C476        C987   1.581       .  S
C476       C1014   1.594       .  S
C476       C1637   1.629       .  S
In477       O479   2.221       .  S
In477       O480   2.235       .  S
In477       O488   2.257       .  S
In477       O482   2.234       .  S
In477       O484   2.154       .  S
In477       O485   2.263       .  S
In477       O486   2.262       .  S
In477       O489   2.244       .  S
C478        O484   1.261       .  A
C478        O486   1.262       .  A
C478        C553   1.435       .  S
O479        C487   1.265       .  A
O480        C487   1.264       .  A
C481        O488   1.255       .  A
C481        O482   1.268       .  A
C481        C964   1.501       .  S
C483        O485   1.261       .  A
C483        O489   1.252       .  A
C490        C957   1.598       .  S
C490        C967   1.601       .  S
C490        C997   1.598       .  S
C490       C1177   1.679   1_545  S
C491        C937   1.613       .  S
C491        C947   1.589       .  S
C491        C954   1.607       .  S
C491        C977   1.605       .  S
In492       O494   2.237       .  S
In492       O495   2.232       .  S
In492       O503   2.151   1_556  S
In492       O497   2.221   1_556  S
In492       O499   2.179   1_546  S
In492       O500   2.264       .  S
In492       O501   2.257   1_556  S
In492       O504   2.179   1_545  S
C493        O499   1.269       .  A
C493        O501   1.274   1_565  A
O494        C502   1.275       .  A
O495        C502   1.270       .  A
C496        O503   1.270       .  A
C496        O497   1.286       .  A
C496        C944   1.452       .  S
C498        O500   1.278       .  A
C498        O504   1.266   1_545  A
C502        C544   1.474       .  S
C505        C894   1.616       .  S
C505        C904   1.590       .  S
C505        C914   1.600       .  S
C505        C924   1.540       .  S
In506       O508   2.149       .  S
In506       O509   2.226       .  S
In506       O517   2.160   1_556  S
In506       O511   2.177       .  S
In506       O513   2.202       .  S
In506       O514   2.170       .  S
In506       O515   2.173       .  S
In506       O518   2.252       .  S
C507        O513   1.273       .  A
C507        O515   1.277       .  A
O508        C516   1.277       .  A
O509        C516   1.278       .  A
C510        O517   1.289       .  A
C510        O511   1.273   1_554  A
C510        C927   1.440       .  S
C512        O514   1.258       .  A
C512        O518   1.270       .  A
C516        C670   1.459       .  S
In519       O521   2.202       .  S
In519       O522   2.275       .  S
In519       O530   2.215       .  S
In519       O524   2.240   1_556  S
In519       O526   2.238       .  S
In519       O527   2.251       .  S
In519       O528   2.194       .  S
In519       O531   2.169       .  S
C520        O526   1.257       .  A
C520        O528   1.254       .  A
O521        C529   1.259       .  A
O522        C529   1.272       .  A
C523        O530   1.266   1_554  A
C523        O524   1.253       .  A
C523        C887   1.495       .  S
C525        O527   1.261       .  A
C525        O531   1.248       .  A
C525        C632   1.435       .  S
C532        C877   1.584       .  S
C532        C884   1.590       .  S
C532        C917   1.598       .  S
C532       C1337   1.645   1_554  S
C533        C857   1.606       .  S
C533        C867   1.568       .  S
C533        C874   1.611       .  S
C533        C934   1.619       .  S
In534       O536   2.229       .  S
In534       O537   2.242       .  S
In534       O545   2.206       .  S
In534       O539   2.202       .  S
In534       O541   2.149       .  S
In534       O542   2.176   1_556  S
In534       O543   2.172   1_545  S
In534       O546   2.182   1_556  S
C535        O541   1.267       .  A
C535        O543   1.263   1_545  A
O536        C544   1.270       .  A
O537        C544   1.261       .  A
C538        O545   1.277       .  A
C538        O539   1.264       .  A
C538        C864   1.481   1_556  S
C540        O542   1.255       .  A
C540        O546   1.263       .  A
C540        C605   1.435       .  S
In547       O549   2.214       .  S
In547       O550   2.242       .  S
In547       O558   2.196       .  S
In547       O552   2.225       .  S
In547       O554   2.206       .  S
In547       O555   2.158       .  S
In547       O556   2.247       .  S
In547       O559   2.254       .  S
C548        O554   1.257       .  A
C548        O556   1.263       .  A
O549        C557   1.267       .  A
O550        C557   1.265       .  A
C551        O558   1.254       .  A
C551        O552   1.252       .  A
C551        C847   1.446       .  S
C553        O555   1.251       .  A
C553        O559   1.250       .  A
C557        C599   1.458   1_545  S
C560        C827   1.645       .  S
C560        C834   1.671       .  S
C560        C844   1.550       .  S
C560        C854   1.639       .  S
In561       O563   2.301       .  S
In561       O564   2.262       .  S
In561       O572   2.257       .  S
In561       O566   2.312       .  S
In561       O568   2.162       .  S
In561       O569   2.272       .  S
In561       O570   2.222       .  S
In561       O573   2.167       .  S
C562        O568   1.257       .  A
C562        O570   1.257       .  A
C562        C651   1.430   1_655  S
O563        C571   1.260       .  A
O564        C571   1.255       .  A
C565        O572   1.245       .  A
C565        O566   1.276       .  A
C565        C814   1.491   1_655  S
C567        O569   1.255       .  A
C567        O573   1.248       .  A
C574        C804   1.605       .  S
C574        C817   1.576       .  S
C574        C907   1.563       .  S
C574       C1037   1.621       .  S
C575        C794   1.546       .  S
C575        C807   1.636       .  S
C575        C837   1.661       .  S
C575       C1234   1.619       .  S
In576       O578   2.260   1_455  S
In576       O579   2.282       .  S
In576       O587   2.160       .  S
In576       O581   2.212       .  S
In576       O583   2.252       .  S
In576       O584   2.188       .  S
In576       O585   2.255       .  S
In576       O588   2.186       .  S
C577        O583   1.257       .  A
C577        O585   1.260       .  A
C577        C624   1.488       .  S
O578        C586   1.258   1_655  A
O579        C586   1.261       .  A
C580        O587   1.262       .  A
C580        O581   1.264       .  A
C580        C797   1.435       .  S
C582        O584   1.266       .  A
C582        O588   1.265       .  A
In589       O591   2.266       .  S
In589       O592   2.199       .  S
In589       O600   2.207       .  S
In589       O594   2.209       .  S
In589       O596   2.191       .  S
In589       O597   2.215       .  S
In589       O598   2.186       .  S
In589       O601   2.228       .  S
C590        O596   1.264       .  A
C590        O598   1.261       .  A
O591        C599   1.272       .  A
O592        C599   1.258       .  A
C593        O600   1.271       .  A
C593        O594   1.264       .  A
C593        C784   1.469       .  S
C595        O597   1.257       .  A
C595        O601   1.265       .  A
C602        C767   1.593       .  S
C602        C774   1.620       .  S
C602        C787   1.561       .  S
C602        C824   1.639       .  S
C603        C747   1.570       .  S
C603        C754   1.580       .  S
C603        C777   1.602       .  S
C603       C1117   1.615       .  S
In604       O606   2.248       .  S
In604       O607   2.196       .  S
In604       O615   2.224       .  S
In604       O609   2.193       .  S
In604       O611   2.197   1_565  S
In604       O612   2.266       .  S
In604       O613   2.217   1_565  S
In604       O616   2.259       .  S
C605        O611   1.249       .  A
C605        O613   1.251       .  A
O606        C614   1.275       .  A
O607        C614   1.269       .  A
C608        O615   1.258       .  A
C608        O609   1.259       .  A
C608        C757   1.475       .  S
C610        O612   1.248       .  A
C610        O616   1.257       .  A
C617        C724   1.612       .  S
C617        C734   1.608       .  S
C617        C764   1.603       .  S
C617       C1377   1.670       .  S
In618       O620   2.264       .  S
In618       O621   2.215       .  S
In618       O629   2.231       .  S
In618       O623   2.235       .  S
In618       O625   2.250       .  S
In618       O626   2.294       .  S
In618       O627   2.291       .  S
In618       O630   2.281   1_565  S
C619        O625   1.261       .  A
C619        O627   1.266       .  A
O620        C628   1.258       .  A
O621        C628   1.269       .  A
C622        O629   1.259       .  A
C622        O623   1.261       .  A
C622        C737   1.489       .  S
C624        O626   1.255   1_545  A
C624        O630   1.254       .  A
In631       O633   2.215       .  S
In631       O634   2.225       .  S
In631       O642   2.217   1_556  S
In631       O636   2.209       .  S
In631       O638   2.173       .  S
In631       O639   2.211       .  S
In631       O640   2.258       .  S
In631       O643   2.156   1_556  S
C632        O638   1.256       .  A
C632        O640   1.257       .  A
O633        C641   1.259       .  A
O634        C641   1.272       .  A
C635        O642   1.254       .  A
C635        O636   1.269   1_554  A
C635        C717   1.480       .  S
C637        O639   1.265   1_554  A
C637        O643   1.255       .  A
C644        C704   1.603       .  S
C644        C714   1.571       .  S
C644        C744   1.593       .  S
C644       C1477   1.609       .  S
In645       O647   2.229   1_455  S
In645       O648   2.261   1_455  S
In645       O656   2.195       .  S
In645       O650   2.212       .  S
In645       O652   2.136       .  S
In645       O653   2.182       .  S
In645       O654   2.194       .  S
In645       O657   2.205       .  S
C646        O652   1.263       .  A
C646        O654   1.269       .  A
O647        C655   1.270       .  A
O648        C655   1.261       .  A
C649        O656   1.269       .  A
C649        O650   1.264       .  A
C649        C697   1.462       .  S
C651        O653   1.257       .  A
C651        O657   1.270       .  A
C658        C684   1.625       .  S
C658        C694   1.579       .  S
C658        C727   1.599       .  S
C658       C1147   1.640       .  S
C659        C677   1.594       .  S
C659        C687   1.633       .  S
C659        C707   1.623       .  S
C659        C897   1.649       .  S
In660       O662   2.292       .  S
In660       O663   2.170       .  S
In660       O671   2.216       .  S
In660       O665   2.255       .  S
In660       O667   2.252       .  S
In660       O668   2.263       .  S
In660       O669   2.173       .  S
In660       O672   2.182       .  S
C661        O667   1.263       .  A
C661        O669   1.255       .  A
O662        C670   1.267       .  A
O663        C670   1.258       .  A
C664        O671   1.262       .  A
C664        O665   1.263       .  A
C664        C674   1.484   1_556  S
C666        O668   1.262       .  A
C666        O672   1.254       .  A
C673        C674   1.396       .  A
C673        C678   1.408       .  A
C673        H680   1.083   1_554  S
C674        C675   1.409       .  A
C675        C676   1.394       .  A
C675        F682   1.342       .  S
C676        C677   1.402       .  A
C676        H681   1.079       .  S
C677        C678   1.434       .  A
C678        F679   1.354       .  S
C683        C684   1.422       .  A
C683        C688   1.439       .  A
C683        H690   1.083       .  S
C684        C685   1.426       .  A
C685        C686   1.430       .  A
C685        F692   1.354       .  S
C686        C687   1.422       .  A
C686        H691   1.081       .  S
C687        C688   1.435       .  A
C688        F689   1.355       .  S
C693        C694   1.427       .  A
C693        C698   1.376       .  A
C693        H700   1.077       .  S
C694        C695   1.430       .  A
C695        C696   1.408       .  A
C695        F702   1.355       .  S
C696        C697   1.403       .  A
C696        H701   1.083       .  S
C697        C698   1.390       .  A
C698        F699   1.360       .  S
C703        C704   1.418       .  A
C703        C708   1.432       .  A
C703        H710   1.079       .  S
C704        C705   1.421       .  A
C705        C706   1.416       .  A
C705        F712   1.358       .  S
C706        C707   1.417       .  A
C706        H711   1.076       .  S
C707        C708   1.430       .  A
C708        F709   1.355       .  S
C713        C714   1.417       .  A
C713        C718   1.411       .  A
C713        H720   1.078       .  S
C714        C715   1.436       .  A
C715        C716   1.377       .  A
C715        F722   1.352   1_554  S
C716        C717   1.385       .  A
C716        H721   1.084   1_554  S
C717        C718   1.414       .  A
C718        F719   1.357       .  S
C723        C724   1.405       .  A
C723        C728   1.409       .  A
C723        H730   1.082       .  S
C724        C725   1.429       .  A
C725        C726   1.429       .  A
C725        F732   1.356       .  S
C726        C727   1.427       .  A
C726        H731   1.081       .  S
C727        C728   1.414       .  A
C728        F729   1.330       .  S
C733        C734   1.429       .  A
C733        C738   1.397       .  A
C733        H740   1.067       .  S
C734        C735   1.430       .  A
C735        C736   1.406       .  A
C735        F742   1.347       .  S
C736        C737   1.401       .  A
C736        H741   1.083       .  S
C737        C738   1.400       .  A
C738        F739   1.357       .  S
C743        C744   1.431       .  A
C743        C748   1.397       .  A
C743        H750   1.081       .  S
C744        C745   1.423       .  A
C745        C746   1.422       .  A
C745        F752   1.352       .  S
C746        C747   1.424       .  A
C746        H751   1.081       .  S
C747        C748   1.400       .  A
C748        F749   1.359       .  S
C753        C754   1.405       .  A
C753        C758   1.380       .  A
C753        H760   1.070       .  S
C754        C755   1.422       .  A
C755        C756   1.412       .  A
C755        F762   1.356       .  S
C756        C757   1.408       .  A
C756        H761   1.083       .  S
C757        C758   1.402       .  A
C758        F759   1.358       .  S
C763        C764   1.411       .  A
C763        C768   1.423       .  A
C763        H770   1.078       .  S
C764        C765   1.437       .  A
C765        C766   1.408       .  A
C765        F772   1.356       .  S
C766        C767   1.397       .  A
C766        H771   1.084       .  S
C767        C768   1.437       .  A
C768        F769   1.356       .  S
C773        C774   1.422       .  A
C773        C778   1.414       .  A
C773        H780   1.077       .  S
C774        C775   1.443       .  A
C775        C776   1.413       .  A
C775        F782   1.346       .  S
C776        C777   1.419       .  A
C776        H781   1.072       .  S
C777        C778   1.409       .  A
C778        F779   1.354       .  S
C783        C784   1.396       .  A
C783        C788   1.389       .  A
C783        H790   1.084       .  S
C784        C785   1.400       .  A
C785        C786   1.400       .  A
C785        F792   1.357       .  S
C786        C787   1.429       .  A
C786        H791   1.081       .  S
C787        C788   1.418       .  A
C788        F789   1.352       .  S
C793        C794   1.403       .  A
C793        C798   1.377       .  A
C793        H800   1.078       .  S
C794        C795   1.409       .  A
C795        C796   1.391       .  A
C795        F802   1.358       .  S
C796        C797   1.389       .  A
C796        H801   1.058       .  S
C797        C798   1.391       .  A
C798        F799   1.343       .  S
C803        C804   1.425       .  A
C803        C808   1.443       .  A
C803        H810   1.082       .  S
C804        C805   1.421       .  A
C805        C806   1.416       .  A
C805        F812   1.357       .  S
C806        C807   1.420       .  A
C806        H811   1.071       .  S
C807        C808   1.427       .  A
C808        F809   1.357       .  S
C813        C814   1.383       .  A
C813        C818   1.391       .  A
C813        H820   1.084       .  S
C814        C815   1.418       .  A
C815        C816   1.413       .  A
C815        F822   1.356       .  S
C816        C817   1.412       .  A
C816        H821   1.082       .  S
C817        C818   1.447       .  A
C818        F819   1.356       .  S
C823        C824   1.428       .  A
C823        C828   1.452       .  A
C823        H830   1.082       .  S
C824        C825   1.428       .  A
C825        C826   1.436       .  A
C825        F832   1.352       .  S
C826        C827   1.428   1_565  A
C826        H831   1.083       .  S
C827        C828   1.435   1_545  A
C828        F829   1.354       .  S
C833        C834   1.458       .  A
C833        C838   1.440       .  A
C833        H840   1.074       .  S
C834        C835   1.416       .  A
C835        C836   1.442       .  A
C835        F842   1.357       .  S
C836        C837   1.448       .  A
C836        H841   1.071       .  S
C837        C838   1.408       .  A
C838        F839   1.356       .  S
C843        C844   1.382       .  A
C843        C848   1.383       .  A
C843        H850   1.074       .  S
C844        C845   1.423       .  A
C845        C846   1.394       .  A
C845        F852   1.353       .  S
C846        C847   1.394       .  A
C846        H851   1.083       .  S
C847        C848   1.408       .  A
C848        F849   1.351       .  S
C853        C854   1.438       .  A
C853        C858   1.434       .  A
C853        H860   1.069       .  S
C854        C855   1.435       .  A
C855        C856   1.413       .  A
C855        F862   1.348       .  S
C856        C857   1.409       .  A
C856        H861   1.083       .  S
C857        C858   1.421       .  A
C858        F859   1.356       .  S
C863        C864   1.413       .  A
C863        C868   1.413       .  A
C863        H870   1.083   1_554  S
C864        C865   1.394       .  A
C865        C866   1.383       .  A
C865        F872   1.359       .  S
C866        C867   1.426       .  A
C866        H871   1.075       .  S
C867        C868   1.419       .  A
C868        F869   1.354       .  S
C873        C874   1.431       .  A
C873        C878   1.433       .  A
C873        H880   1.075       .  S
C874        C875   1.435       .  A
C875        C876   1.398       .  A
C875        F882   1.356       .  S
C876        C877   1.405       .  A
C876        H881   1.084       .  S
C877        C878   1.416       .  A
C878        F879   1.348       .  S
C883        C884   1.427   1_556  A
C883        C888   1.381       .  A
C883        H890   1.073       .  S
C884        C885   1.429       .  A
C885        C886   1.416       .  A
C885        F892   1.350       .  S
C886        C887   1.411       .  A
C886        H891   1.083       .  S
C887        C888   1.388   1_554  A
C888        F889   1.350       .  S
C893        C894   1.422       .  A
C893        C898   1.426       .  A
C893        H900   1.081       .  S
C894        C895   1.423       .  A
C895        C896   1.427       .  A
C895        F902   1.351       .  S
C896        C897   1.429       .  A
C896        H901   1.077       .  S
C897        C898   1.441       .  A
C898        F899   1.355       .  S
C903        C904   1.437       .  A
C903        C908   1.409       .  A
C903        H910   1.069       .  S
C904        C905   1.406       .  A
C905        C906   1.398       .  A
C905        F912   1.357       .  S
C906        C907   1.425       .  A
C906        H911   1.081       .  S
C907        C908   1.398       .  A
C908        F909   1.356       .  S
C913        C914   1.395       .  A
C913        C918   1.416       .  A
C913        H920   1.082       .  S
C914        C915   1.444       .  A
C915        C916   1.414       .  A
C915        F922   1.345       .  S
C916        C917   1.392       .  A
C916        H921   1.073       .  S
C917        C918   1.444       .  A
C918        F919   1.354       .  S
C923        C924   1.414       .  A
C923        C928   1.379       .  A
C923        H930   1.074       .  S
C924        C925   1.397       .  A
C925        C926   1.398       .  A
C925        F932   1.355       .  S
C926        C927   1.390       .  A
C926        H931   1.063       .  S
C927        C928   1.391       .  A
C928        F929   1.349       .  S
C933        C934   1.425       .  A
C933        C938   1.419       .  A
C933        H940   1.078       .  S
C934        C935   1.424       .  A
C935        C936   1.439       .  A
C935        F942   1.353       .  S
C936        C937   1.430       .  A
C936        H941   1.082       .  S
C937        C938   1.414       .  A
C938        F939   1.354       .  S
C943        C944   1.394       .  A
C943        C948   1.392       .  A
C943        H950   1.078       .  S
C944        C945   1.397       .  A
C945        C946   1.397       .  A
C945        F952   1.356       .  S
C946        C947   1.406       .  A
C946        H951   1.072       .  S
C947        C948   1.419       .  A
C948        F949   1.355       .  S
C953        C954   1.432       .  A
C953        C958   1.412       .  A
C953        H960   1.081       .  S
C954        C955   1.419       .  A
C955        C956   1.427       .  A
C955        F962   1.347       .  S
C956        C957   1.425       .  A
C956        H961   1.081       .  S
C957        C958   1.413       .  A
C958        F959   1.357       .  S
C963        C964   1.388       .  A
C963        C968   1.391       .  A
C963        H970   1.082       .  S
C964        C965   1.409       .  A
C965        C966   1.419       .  A
C965        F972   1.356       .  S
C966        C967   1.418       .  A
C966        H971   1.060       .  S
C967        C968   1.443       .  A
C968        F969   1.354       .  S
C973        C974   1.438       .  A
C973        C978   1.424       .  A
C973        H980   1.075       .  S
C974        C975   1.420       .  A
C975        C976   1.405       .  A
C975        F982   1.354       .  S
C976        C977   1.408       .  A
C976        H981   1.080       .  S
C977        C978   1.416       .  A
C978        F979   1.356       .  S
C983        C984   1.399       .  A
C983        C988   1.387       .  A
C983        H990   1.082   1_554  S
C984        C985   1.413       .  A
C985        C986   1.418       .  A
C985        F992   1.357       .  S
C986        C987   1.426       .  A
C986        H991   1.083       .  S
C987        C988   1.412       .  A
C988        F989   1.341   1_554  S
C993        C994   1.413       .  A
C993        C998   1.405       .  A
C993       H1000   1.068       .  S
C994        C995   1.412       .  A
C995        C996   1.422       .  A
C995       F1002   1.358       .  S
C996        C997   1.437       .  A
C996       H1001   1.078       .  S
C997        C998   1.395       .  A
C998        F999   1.355       .  S
C1003      C1004   1.425       .  A
C1003      C1008   1.384       .  A
C1003      H1010   1.076       .  S
C1004      C1005   1.412       .  A
C1005      C1006   1.394       .  A
C1005      F1012   1.354       .  S
C1006      C1007   1.407       .  A
C1006      H1011   1.081   1_545  S
C1007      C1008   1.395       .  A
C1008      F1009   1.359       .  S
C1013      C1014   1.404       .  A
C1013      C1018   1.410       .  A
C1013      H1020   1.084       .  S
C1014      C1015   1.425       .  A
C1015      C1016   1.433       .  A
C1015      F1022   1.353       .  S
C1016      C1017   1.424       .  A
C1016      H1021   1.079       .  S
C1017      C1018   1.437       .  A
C1018      F1019   1.347       .  S
C1023      C1024   1.396       .  A
C1023      C1028   1.381       .  A
C1023      H1030   1.079       .  S
C1024      C1025   1.400       .  A
C1025      C1026   1.394       .  A
C1025      F1032   1.357       .  S
C1026      C1027   1.417       .  A
C1026      H1031   1.082       .  S
C1027      C1028   1.410       .  A
C1028      F1029   1.357       .  S
C1033      C1034   1.427       .  A
C1033      C1038   1.429   1_655  A
C1033      H1040   1.069       .  S
C1034      C1035   1.438       .  A
C1035      C1036   1.434   1_655  A
C1035      F1042   1.355       .  S
C1036      C1037   1.426       .  A
C1036      H1041   1.081       .  S
C1037      C1038   1.427       .  A
C1038      F1039   1.355       .  S
C1043      C1044   1.427       .  A
C1043      C1048   1.410       .  A
C1043      H1050   1.081       .  S
C1044      C1045   1.408       .  A
C1045      C1046   1.396       .  A
C1045      F1052   1.355       .  S
C1046      C1047   1.432       .  A
C1046      H1051   1.073       .  S
C1047      C1048   1.424       .  A
C1048      F1049   1.354       .  S
C1053      C1054   1.447       .  A
C1053      C1058   1.427       .  A
C1053      H1060   1.068       .  S
C1054      C1055   1.394       .  A
C1055      C1056   1.404       .  A
C1055      F1062   1.357       .  S
C1056      C1057   1.438       .  A
C1056      H1061   1.061       .  S
C1057      C1058   1.403       .  A
C1058      F1059   1.357       .  S
C1063      C1064   1.368       .  A
C1063      C1068   1.374       .  A
C1063      H1070   1.084       .  S
C1064      C1065   1.397       .  A
C1065      C1066   1.378       .  A
C1065      F1072   1.340       .  S
C1066      C1067   1.397       .  A
C1066      H1071   1.074       .  S
C1067      C1068   1.450       .  A
C1068      F1069   1.351       .  S
C1073      C1074   1.417       .  A
C1073      C1078   1.439       .  A
C1073      H1080   1.070       .  S
C1074      C1075   1.428       .  A
C1075      C1076   1.422       .  A
C1075      F1082   1.355       .  S
C1076      C1077   1.425       .  A
C1076      H1081   1.083       .  S
C1077      C1078   1.435       .  A
C1078      F1079   1.349       .  S
C1083      C1084   1.421       .  A
C1083      C1088   1.380       .  A
C1083      H1090   1.072       .  S
C1084      C1085   1.425       .  A
C1085      C1086   1.412       .  A
C1085      F1092   1.356       .  S
C1086      C1087   1.408       .  A
C1086      H1091   1.083       .  S
C1087      C1088   1.394       .  A
C1088      F1089   1.360       .  S
C1093      C1094   1.429       .  A
C1093      C1098   1.424       .  A
C1093      H1100   1.075       .  S
C1094      C1095   1.430       .  A
C1095      C1096   1.400       .  A
C1095      F1102   1.356       .  S
C1096      C1097   1.407       .  A
C1096      H1101   1.084       .  S
C1097      C1098   1.417       .  A
C1098      F1099   1.356       .  S
C1103      C1104   1.390       .  A
C1103      C1108   1.379       .  A
C1103      H1110   1.084       .  S
C1104      C1105   1.410       .  A
C1105      C1106   1.408       .  A
C1105      F1112   1.357       .  S
C1106      C1107   1.417       .  A
C1106      H1111   1.078       .  S
C1107      C1108   1.433       .  A
C1108      F1109   1.355   1_554  S
C1113      C1114   1.423       .  A
C1113      C1118   1.433       .  A
C1113      H1120   1.079       .  S
C1114      C1115   1.424       .  A
C1115      C1116   1.422       .  A
C1115      F1122   1.357       .  S
C1116      C1117   1.418       .  A
C1116      H1121   1.084       .  S
C1117      C1118   1.424       .  A
C1118      F1119   1.356       .  S
C1123      C1124   1.435       .  A
C1123      C1128   1.419       .  A
C1123      H1130   1.068       .  S
C1124      C1125   1.440       .  A
C1125      C1126   1.448       .  A
C1125      F1132   1.355       .  S
C1126      C1127   1.428       .  A
C1126      H1131   1.081       .  S
C1127      C1128   1.411       .  A
C1128      F1129   1.358       .  S
C1133      C1134   1.395       .  A
C1133      C1138   1.396       .  A
C1133      H1140   1.081       .  S
C1134      C1135   1.415       .  A
C1135      C1136   1.409       .  A
C1135      F1142   1.356       .  S
C1136      C1137   1.413       .  A
C1136      H1141   1.075       .  S
C1137      C1138   1.410       .  A
C1138      F1139   1.356       .  S
C1143      C1144   1.416       .  A
C1143      C1148   1.422   1_655  A
C1143      H1150   1.060       .  S
C1144      C1145   1.431       .  A
C1145      C1146   1.455   1_655  A
C1145      F1152   1.355       .  S
C1146      C1147   1.434       .  A
C1146      H1151   1.082       .  S
C1147      C1148   1.422       .  A
C1148      F1149   1.357       .  S
C1153      C1154   1.422       .  A
C1153      C1158   1.403       .  A
C1153      H1160   1.074       .  S
C1154      C1155   1.405       .  A
C1155      C1156   1.415       .  A
C1155      F1162   1.357       .  S
C1156      C1157   1.441       .  A
C1156      H1161   1.078       .  S
C1157      C1158   1.416       .  A
C1158      F1159   1.350       .  S
C1163      C1164   1.410       .  A
C1163      C1168   1.401       .  A
C1163      H1170   1.083       .  S
C1164      C1165   1.395       .  A
C1165      C1166   1.384       .  A
C1165      F1172   1.358       .  S
C1166      C1167   1.425       .  A
C1166      H1171   1.080       .  S
C1167      C1168   1.413       .  A
C1168      F1169   1.354       .  S
C1173      C1174   1.425       .  A
C1173      C1178   1.437       .  A
C1173      H1180   1.082       .  S
C1174      C1175   1.428       .  A
C1175      C1176   1.449       .  A
C1175      F1182   1.349       .  S
C1176      C1177   1.440       .  A
C1176      H1181   1.079       .  S
C1177      C1178   1.448       .  A
C1178      F1179   1.351       .  S
C1183      C1184   1.434       .  A
C1183      C1188   1.424       .  A
C1183      H1190   1.075       .  S
C1184      C1185   1.424       .  A
C1185      C1186   1.438       .  A
C1185      F1192   1.351       .  S
C1186      C1187   1.448       .  A
C1186      H1191   1.071       .  S
C1187      C1188   1.419       .  A
C1188      F1189   1.350       .  S
C1193      C1194   1.430       .  A
C1193      C1198   1.388       .  A
C1193      H1200   1.069       .  S
C1194      C1195   1.422       .  A
C1195      C1196   1.404       .  A
C1195      F1202   1.353       .  S
C1196      C1197   1.409       .  A
C1196      H1201   1.082       .  S
C1197      C1198   1.392       .  A
C1198      F1199   1.359       .  S
C1203      C1204   1.421       .  A
C1203      C1208   1.407       .  A
C1203      H1210   1.083       .  S
C1204      C1205   1.409       .  A
C1205      C1206   1.409       .  A
C1205      F1212   1.357       .  S
C1206      C1207   1.426       .  A
C1206      H1211   1.084       .  S
C1207      C1208   1.410       .  A
C1208      F1209   1.356       .  S
C1213      C1214   1.427       .  A
C1213      C1218   1.427       .  A
C1213      H1220   1.064       .  S
C1214      C1215   1.434       .  A
C1215      C1216   1.432       .  A
C1215      F1222   1.356       .  S
C1216      C1217   1.432       .  A
C1216      H1221   1.078       .  S
C1217      C1218   1.417       .  A
C1218      F1219   1.342       .  S
C1223      C1224   1.419       .  A
C1223      C1228   1.396       .  A
C1223      H1230   1.077       .  S
C1224      C1225   1.397       .  A
C1225      C1226   1.396       .  A
C1225      F1232   1.345       .  S
C1226      C1227   1.389       .  A
C1226      H1231   1.053       .  S
C1227      C1228   1.405       .  A
C1228      F1229   1.355       .  S
C1233      C1234   1.420       .  A
C1233      C1238   1.429       .  A
C1233      H1240   1.079       .  S
C1234      C1235   1.445       .  A
C1235      C1236   1.417       .  A
C1235      F1242   1.348       .  S
C1236      C1237   1.411       .  A
C1236      H1241   1.081       .  S
C1237      C1238   1.429       .  A
C1238      F1239   1.355       .  S
C1243      C1244   1.413       .  A
C1243      C1248   1.412       .  A
C1243      H1250   1.083       .  S
C1244      C1245   1.389       .  A
C1245      C1246   1.384       .  A
C1245      F1252   1.358       .  S
C1246      C1247   1.431       .  A
C1246      H1251   1.079       .  S
C1247      C1248   1.414       .  A
C1248      F1249   1.355       .  S
C1253      C1254   1.430       .  A
C1253      C1258   1.439       .  A
C1253      H1260   1.073       .  S
C1254      C1255   1.410       .  A
C1255      C1256   1.406       .  A
C1255      F1262   1.358       .  S
C1256      C1257   1.423       .  A
C1256      H1261   1.032       .  S
C1257      C1258   1.420       .  A
C1258      F1259   1.357       .  S
C1263      C1264   1.389       .  A
C1263      C1268   1.386       .  A
C1263      H1270   1.067       .  S
C1264      C1265   1.400       .  A
C1265      C1266   1.377       .  A
C1265      F1272   1.356       .  S
C1266      C1267   1.409       .  A
C1266      H1271   1.079       .  S
C1267      C1268   1.407       .  A
C1268      F1269   1.358       .  S
C1273      C1274   1.397       .  A
C1273      C1278   1.407       .  A
C1273      H1280   1.082       .  S
C1274      C1275   1.431       .  A
C1275      C1276   1.403       .  A
C1275      F1282   1.356       .  S
C1276      C1277   1.404       .  A
C1276      H1281   1.062       .  S
C1277      C1278   1.438       .  A
C1278      F1279   1.355       .  S
C1283      C1284   1.408       .  A
C1283      C1288   1.410       .  A
C1283      H1290   1.083       .  S
C1284      C1285   1.397       .  A
C1285      C1286   1.378       .  A
C1285      F1292   1.359       .  S
C1286      C1287   1.422       .  A
C1286      H1291   1.082       .  S
C1287      C1288   1.419       .  A
C1288      F1289   1.351       .  S
C1293      C1294   1.397       .  A
C1293      C1298   1.429       .  A
C1293      H1300   1.081       .  S
C1294      C1295   1.448       .  A
C1295      C1296   1.419       .  A
C1295      F1302   1.358       .  S
C1296      C1297   1.404       .  A
C1296      H1301   1.082       .  S
C1297      C1298   1.464       .  A
C1298      F1299   1.345       .  S
C1303      C1304   1.422   1_545  A
C1303      C1308   1.417       .  A
C1303      H1310   1.083       .  S
C1304      C1305   1.376   1_565  A
C1305      C1306   1.372       .  A
C1305      F1312   1.360   1_545  S
C1306      C1307   1.436       .  A
C1306      H1311   1.070       .  S
C1307      C1308   1.409       .  A
C1308      F1309   1.352       .  S
C1313      C1314   1.423       .  A
C1313      C1318   1.435       .  A
C1313      H1320   1.076       .  S
C1314      C1315   1.435       .  A
C1315      C1316   1.400       .  A
C1315      F1322   1.351       .  S
C1316      C1317   1.411       .  A
C1316      H1321   1.082       .  S
C1317      C1318   1.431       .  A
C1318      F1319   1.353       .  S
C1323      C1324   1.429       .  A
C1323      C1328   1.391       .  A
C1323      H1330   1.066       .  S
C1324      C1325   1.431       .  A
C1325      C1326   1.416       .  A
C1325      F1332   1.343       .  S
C1326      C1327   1.408       .  A
C1326      H1331   1.083       .  S
C1327      C1328   1.397       .  A
C1328      F1329   1.356       .  S
C1333      C1334   1.418       .  A
C1333      C1338   1.417       .  A
C1333      H1340   1.081       .  S
C1334      C1335   1.427       .  A
C1335      C1336   1.455       .  A
C1335      F1342   1.355       .  S
C1336      C1337   1.437       .  A
C1336      H1341   1.074       .  S
C1337      C1338   1.426       .  A
C1338      F1339   1.350       .  S
C1343      C1344   1.436       .  A
C1343      C1348   1.444       .  A
C1343      H1350   1.075       .  S
C1344      C1345   1.404       .  A
C1345      C1346   1.419       .  A
C1345      F1352   1.357       .  S
C1346      C1347   1.447       .  A
C1346      H1351   1.076       .  S
C1347      C1348   1.432       .  A
C1348      F1349   1.357       .  S
C1353      C1354   1.406       .  A
C1353      C1358   1.431       .  A
C1353      H1360   1.082       .  S
C1354      C1355   1.422       .  A
C1355      C1356   1.439       .  A
C1355      F1362   1.338       .  S
C1356      C1357   1.430       .  A
C1356      H1361   1.079       .  S
C1357      C1358   1.454       .  A
C1358      F1359   1.354       .  S
C1363      C1364   1.413       .  A
C1363      C1368   1.404       .  A
C1363      H1370   1.081       .  S
C1364      C1365   1.422       .  A
C1365      C1366   1.399       .  A
C1365      F1372   1.356       .  S
C1366      C1367   1.408       .  A
C1366      H1371   1.083       .  S
C1367      C1368   1.409       .  A
C1368      F1369   1.358       .  S
C1373      C1374   1.427       .  A
C1373      C1378   1.446       .  A
C1373      H1380   1.079       .  S
C1374      C1375   1.429       .  A
C1375      C1376   1.438       .  A
C1375      F1382   1.356       .  S
C1376      C1377   1.434       .  A
C1376      H1381   1.066       .  S
C1377      C1378   1.445       .  A
C1378      F1379   1.352       .  S
C1383      C1384   1.432       .  A
C1383      C1388   1.394       .  A
C1383      H1390   1.072       .  S
C1384      C1385   1.405       .  A
C1385      C1386   1.396       .  A
C1385      F1392   1.356       .  S
C1386      C1387   1.397       .  A
C1386      H1391   1.067       .  S
C1387      C1388   1.385       .  A
C1388      F1389   1.356       .  S
C1393      C1394   1.418       .  A
C1393      C1398   1.420       .  A
C1393      H1400   1.081       .  S
C1394      C1395   1.418       .  A
C1395      C1396   1.432       .  A
C1395      F1402   1.357       .  S
C1396      C1397   1.432       .  A
C1396      H1401   1.066       .  S
C1397      C1398   1.433       .  A
C1398      F1399   1.356       .  S
C1403      C1404   1.376       .  A
C1403      C1408   1.371       .  A
C1403      H1410   1.080       .  S
C1404      C1405   1.420       .  A
C1405      C1406   1.427       .  A
C1405      F1412   1.356       .  S
C1406      C1407   1.418       .  A
C1406      H1411   1.076       .  S
C1407      C1408   1.435       .  A
C1408      F1409   1.345       .  S
C1413      C1414   1.426       .  A
C1413      C1418   1.440       .  A
C1413      H1420   1.073       .  S
C1414      C1415   1.441       .  A
C1415      C1416   1.458       .  A
C1415      F1422   1.352       .  S
C1416      C1417   1.441       .  A
C1416      H1421   1.080       .  S
C1417      C1418   1.445       .  A
C1418      F1419   1.344       .  S
C1423      C1424   1.388       .  A
C1423      C1428   1.409       .  A
C1423      H1430   1.082       .  S
C1424      C1425   1.446       .  A
C1425      C1426   1.416       .  A
C1425      F1432   1.358       .  S
C1426      C1427   1.400       .  A
C1426      H1431   1.078       .  S
C1427      C1428   1.452       .  A
C1428      F1429   1.345       .  S
C1433      C1434   1.426       .  A
C1433      C1438   1.382       .  A
C1433      H1440   1.068       .  S
C1434      C1435   1.419       .  A
C1435      C1436   1.417       .  A
C1435      F1442   1.352       .  S
C1436      C1437   1.410       .  A
C1436      H1441   1.081       .  S
C1437      C1438   1.382       .  A
C1438      F1439   1.358       .  S
C1443      C1444   1.420       .  A
C1443      C1448   1.426       .  A
C1443      H1450   1.078       .  S
C1444      C1445   1.432       .  A
C1445      C1446   1.429       .  A
C1445      F1452   1.350       .  S
C1446      C1447   1.425       .  A
C1446      H1451   1.080       .  S
C1447      C1448   1.440       .  A
C1448      F1449   1.350       .  S
C1453      C1454   1.400       .  A
C1453      C1458   1.414       .  A
C1453      H1460   1.081       .  S
C1454      C1455   1.440       .  A
C1455      C1456   1.420       .  A
C1455      F1462   1.356       .  S
C1456      C1457   1.404       .  A
C1456      H1461   1.082       .  S
C1457      C1458   1.443       .  A
C1458      F1459   1.350       .  S
C1463      C1464   1.414       .  A
C1463      C1468   1.411       .  A
C1463      H1470   1.083       .  S
C1464      C1465   1.375       .  A
C1465      C1466   1.372       .  A
C1465      F1472   1.357       .  S
C1466      C1467   1.429       .  A
C1466      H1471   1.066       .  S
C1467      C1468   1.418       .  A
C1468      F1469   1.351       .  S
C1473      C1474   1.409       .  A
C1473      C1478   1.409       .  A
C1473      H1480   1.073       .  S
C1474      C1475   1.434       .  A
C1475      C1476   1.445       .  A
C1475      F1482   1.356       .  S
C1476      C1477   1.424   1_556  A
C1476      H1481   1.080       .  S
C1477      C1478   1.423   1_554  A
C1478      F1479   1.355   1_556  S
C1483      C1484   1.396       .  A
C1483      C1488   1.401       .  A
C1483      H1490   1.080       .  S
C1484      C1485   1.432       .  A
C1485      C1486   1.428       .  A
C1485      F1492   1.349       .  S
C1486      C1487   1.416       .  A
C1486      H1491   1.083       .  S
C1487      C1488   1.445       .  A
C1488      F1489   1.355       .  S
C1493      C1494   1.402       .  A
C1493      C1498   1.398       .  A
C1493      H1500   1.083       .  S
C1494      C1495   1.410       .  A
C1495      C1496   1.411       .  A
C1495      F1502   1.358       .  S
C1496      C1497   1.421       .  A
C1496      H1501   1.082       .  S
C1497      C1498   1.423       .  A
C1498      F1499   1.354       .  S
C1503      C1504   1.418       .  A
C1503      C1508   1.404       .  A
C1503      H1510   1.067       .  S
C1504      C1505   1.430       .  A
C1505      C1506   1.433       .  A
C1505      F1512   1.357       .  S
C1506      C1507   1.425       .  A
C1506      H1511   1.082       .  S
C1507      C1508   1.425       .  A
C1508      F1509   1.355       .  S
C1513      C1514   1.409       .  A
C1513      C1518   1.426       .  A
C1513      H1520   1.083       .  S
C1514      C1515   1.428       .  A
C1515      C1516   1.398       .  A
C1515      F1522   1.343       .  S
C1516      C1517   1.406       .  A
C1516      H1521   1.076       .  S
C1517      C1518   1.451       .  A
C1518      F1519   1.356       .  S
C1523      C1524   1.402       .  A
C1523      C1528   1.383       .  A
C1523      H1530   1.075       .  S
C1524      C1525   1.433       .  A
C1525      C1526   1.413       .  A
C1525      F1532   1.355       .  S
C1526      C1527   1.401       .  A
C1526      H1531   1.082       .  S
C1527      C1528   1.398       .  A
C1528      F1529   1.350       .  S
C1533      C1534   1.429       .  A
C1533      C1538   1.448       .  A
C1533      H1540   1.082       .  S
C1534      C1535   1.436       .  A
C1535      C1536   1.406       .  A
C1535      F1542   1.355       .  S
C1536      C1537   1.402       .  A
C1536      H1541   1.066       .  S
C1537      C1538   1.428       .  A
C1538      F1539   1.355       .  S
C1543      C1544   1.390       .  A
C1543      C1548   1.378   1_565  A
C1543      H1550   1.084       .  S
C1544      C1545   1.409   1_565  A
C1545      C1546   1.406       .  A
C1545      F1552   1.357       .  S
C1546      C1547   1.414       .  A
C1546      H1551   1.078       .  S
C1547      C1548   1.427       .  A
C1548      F1549   1.354       .  S
C1553      C1554   1.427       .  A
C1553      C1558   1.400       .  A
C1553      H1560   1.081       .  S
C1554      C1555   1.397       .  A
C1555      C1556   1.407       .  A
C1555      F1562   1.356       .  S
C1556      C1557   1.437       .  A
C1556      H1561   1.083       .  S
C1557      C1558   1.412       .  A
C1558      F1559   1.349       .  S
C1563      C1564   1.400       .  A
C1563      C1568   1.399       .  A
C1563      H1570   1.081       .  S
C1564      C1565   1.378       .  A
C1565      C1566   1.372       .  A
C1565      F1572   1.358       .  S
C1566      C1567   1.428       .  A
C1566      H1571   1.081       .  S
C1567      C1568   1.411       .  A
C1568      F1569   1.352       .  S
C1573      C1574   1.436       .  A
C1573      C1578   1.442       .  A
C1573      H1580   1.068       .  S
C1574      C1575   1.453       .  A
C1575      C1576   1.459       .  A
C1575      F1582   1.352       .  S
C1576      C1577   1.429       .  A
C1576      H1581   1.081       .  S
C1577      C1578   1.423       .  A
C1578      F1579   1.351       .  S
C1583      C1584   1.418       .  A
C1583      C1588   1.424       .  A
C1583      H1590   1.082       .  S
C1584      C1585   1.422       .  A
C1585      C1586   1.411       .  A
C1585      F1592   1.351       .  S
C1586      C1587   1.414       .  A
C1586      H1591   1.065       .  S
C1587      C1588   1.442       .  A
C1588      F1589   1.358       .  S
C1593      C1594   1.419       .  A
C1593      C1598   1.395       .  A
C1593      H1600   1.080       .  S
C1594      C1595   1.384       .  A
C1595      C1596   1.388       .  A
C1595      F1602   1.358       .  S
C1596      C1597   1.393       .  A
C1596      H1601   1.070       .  S
C1597      C1598   1.398       .  A
C1598      F1599   1.356       .  S
C1603      C1604   1.410       .  A
C1603      C1608   1.432   1_655  A
C1603      H1610   1.075       .  S
C1604      C1605   1.441       .  A
C1605      C1606   1.443   1_655  A
C1605      F1612   1.357       .  S
C1606      C1607   1.424       .  A
C1606      H1611   1.073       .  S
C1607      C1608   1.418       .  A
C1608      F1609   1.343       .  S
C1613      C1614   1.432       .  A
C1613      C1618   1.423       .  A
C1613      H1620   1.082       .  S
C1614      C1615   1.412       .  A
C1615      C1616   1.412       .  A
C1615      F1622   1.354       .  S
C1616      C1617   1.428       .  A
C1616      H1621   1.077       .  S
C1617      C1618   1.419       .  A
C1618      F1619   1.353       .  S
C1623      C1624   1.421       .  A
C1623      C1628   1.396       .  A
C1623      H1630   1.070       .  S
C1624      C1625   1.425       .  A
C1625      C1626   1.414       .  A
C1625      F1632   1.353       .  S
C1626      C1627   1.413       .  A
C1626      H1631   1.083       .  S
C1627      C1628   1.400       .  A
C1628      F1629   1.357       .  S
C1633      C1634   1.427       .  A
C1633      C1638   1.446       .  A
C1633      H1640   1.081       .  S
C1634      C1635   1.433       .  A
C1635      C1636   1.428       .  A
C1635      F1642   1.356       .  S
C1636      C1637   1.421   1_556  A
C1636      H1641   1.083   1_556  S
C1637      C1638   1.431   1_554  A
C1638      F1639   1.354   1_556  S
C1643      C1644   1.390       .  A
C1643      C1648   1.418       .  A
C1643      H1650   1.080       .  S
C1644      C1645   1.454       .  A
C1645      C1646   1.418       .  A
C1645      F1652   1.357       .  S
C1646      C1647   1.394       .  A
C1646      H1651   1.081       .  S
C1647      C1648   1.447       .  A
C1648      F1649   1.353       .  S
C1653      C1654   1.379       .  A
C1653      C1658   1.386       .  A
C1653      H1660   1.083       .  S
C1654      C1655   1.412       .  A
C1655      C1656   1.395       .  A
C1655      F1662   1.352       .  S
C1656      C1657   1.392       .  A
C1656      H1661   1.076       .  S
C1657      C1658   1.442       .  A
C1658      F1659   1.351       .  S
C1663      C1664   1.419       .  A
C1663      C1668   1.429       .  A
C1663      H1670   1.079       .  S
C1664      C1665   1.424       .  A
C1665      C1666   1.429       .  A
C1665      F1672   1.356       .  S
C1666      C1667   1.436       .  A
C1666      H1671   1.081       .  S
C1667      C1668   1.430       .  A
C1668      F1669   1.351       .  S
C1673      C1674   1.416       .  A
C1673      C1678   1.429       .  A
C1673      H1680   1.081       .  S
C1674      C1675   1.426       .  A
C1675      C1676   1.409       .  A
C1675      F1682   1.358       .  S
C1676      C1677   1.416       .  A
C1676      H1681   1.083       .  S
C1677      C1678   1.434       .  A
C1678      F1679   1.343       .  S
C1683      C1684   1.414       .  A
C1683      C1688   1.396       .  A
C1683      H1690   1.069       .  S
C1684      C1685   1.431       .  A
C1685      C1686   1.402       .  A
C1685      F1692   1.355       .  S
C1686      C1687   1.399       .  A
C1686      H1691   1.084       .  S
C1687      C1688   1.399       .  A
C1688      F1689   1.355       .  S
C1693      C1694   1.426       .  A
C1693      C1698   1.423       .  A
C1693      H1700   1.080       .  S
C1694      C1695   1.434       .  A
C1695      C1696   1.443       .  A
C1695      F1702   1.353       .  S
C1696      C1697   1.419       .  A
C1696      H1701   1.078       .  S
C1697      C1698   1.426       .  A
C1698      F1699   1.357       .  S
C1703      C1704   1.441       .  A
C1703      C1708   1.385       .  A
C1703      H1710   1.059       .  S
C1704      C1705   1.416       .  A
C1705      C1706   1.419       .  A
C1705      F1712   1.356       .  S
C1706      C1707   1.419       .  A
C1706      H1711   1.080       .  S
C1707      C1708   1.365       .  A
C1708      F1709   1.356       .  S
C1713      C1714   1.418       .  A
C1713      C1718   1.435       .  A
C1713      H1720   1.080       .  S
C1714      C1715   1.423       .  A
C1715      C1716   1.416       .  A
C1715      F1722   1.355       .  S
C1716      C1717   1.408       .  A
C1716      H1721   1.079       .  S
C1717      C1718   1.422       .  A
C1718      F1719   1.352       .  S
C1723      C1724   1.441       .  A
C1723      C1728   1.436       .  A
C1723      H1730   1.080       .  S
C1724      C1725   1.431       .  A
C1725      C1726   1.432       .  A
C1725      F1732   1.356       .  S
C1726      C1727   1.425       .  A
C1726      H1731   1.083       .  S
C1727      C1728   1.416       .  A
C1728      F1729   1.355       .  S
C1733      C1734   1.423       .  A
C1733      C1738   1.428       .  A
C1733      H1740   1.083       .  S
C1734      C1735   1.394       .  A
C1735      C1736   1.386       .  A
C1735      F1742   1.359       .  S
C1736      C1737   1.428       .  A
C1736      H1741   1.077       .  S
C1737      C1738   1.418       .  A
C1738      F1739   1.351       .  S
C1743      C1744   1.418       .  A
C1743      C1748   1.421   1_655  A
C1743      H1750   1.069       .  S
C1744      C1745   1.423       .  A
C1745      C1746   1.441   1_655  A
C1745      F1752   1.354       .  S
C1746      C1747   1.438       .  A
C1746      H1751   1.073       .  S
C1747      C1748   1.427       .  A
C1748      F1749   1.357       .  S
C1753      C1754   1.432       .  A
C1753      C1758   1.432       .  A
C1753      H1760   1.077       .  S
C1754      C1755   1.413       .  A
C1755      C1756   1.426       .  A
C1755      F1762   1.355       .  S
C1756      C1757   1.435       .  A
C1756      H1761   1.082       .  S
C1757      C1758   1.409       .  A
C1758      F1759   1.355       .  S
C1763      C1764   1.402       .  A
C1763      C1768   1.393       .  A
C1763      H1770   1.069       .  S
C1764      C1765   1.401       .  A
C1765      C1766   1.390       .  A
C1765      F1772   1.350       .  S
C1766      C1767   1.419       .  A
C1766      H1771   1.071       .  S
C1767      C1768   1.424       .  A
C1768      F1769   1.356       .  S
C1773      C1774   1.433       .  A
C1773      C1778   1.452       .  A
C1773      H1780   1.078       .  S
C1774      C1775   1.430       .  A
C1775      C1776   1.423       .  A
C1775      F1782   1.342       .  S
C1776      C1777   1.414       .  A
C1776      H1781   1.077       .  S
C1777      C1778   1.432       .  A
C1778      F1779   1.355       .  S
C1783      C1784   1.425       .  A
C1783      C1788   1.405       .  A
C1783      H1790   1.071       .  S
C1784      C1785   1.415       .  A
C1785      C1786   1.429       .  A
C1785      F1792   1.355       .  S
C1786      C1787   1.436       .  A
C1786      H1791   1.082       .  S
C1787      C1788   1.397       .  A
C1788      F1789   1.340       .  S
C1793      C1794   1.414       .  A
C1793      C1798   1.391       .  A
C1793      H1800   1.070       .  S
C1794      C1795   1.405       .  A
C1795      C1796   1.411       .  A
C1795      F1802   1.357       .  S
C1796      C1797   1.407       .  A
C1796      H1801   1.083       .  S
C1797      C1798   1.408       .  A
C1798      F1799   1.352       .  S
C1803      C1804   1.415       .  A
C1803      C1808   1.427       .  A
C1803      H1810   1.079       .  S
C1804      C1805   1.435       .  A
C1805      C1806   1.435       .  A
C1805      F1812   1.357       .  S
C1806      C1807   1.418   1_556  A
C1806      H1811   1.081   1_556  S
C1807      C1808   1.422   1_554  A
C1808      F1809   1.352   1_556  S
C1813      C1814   1.423       .  A
C1813      C1818   1.421       .  A
C1813      H1820   1.083       .  S
C1814      C1815   1.430       .  A
C1815      C1816   1.402       .  A
C1815      F1822   1.347       .  S
C1816      C1817   1.413       .  A
C1816      H1821   1.080       .  S
C1817      C1818   1.433       .  A
C1818      F1819   1.353       .  S
C1823      C1824   1.388       .  A
C1823      C1828   1.378       .  A
C1823      H1830   1.084       .  S
C1824      C1825   1.417       .  A
C1825      C1826   1.410       .  A
C1825      F1832   1.357       .  S
C1826      C1827   1.415       .  A
C1826      H1831   1.082       .  S
C1827      C1828   1.431       .  A
C1828      F1829   1.355       .  S
C1833      C1834   1.434       .  A
C1833      C1838   1.445       .  A
C1833      H1840   1.081       .  S
C1834      C1835   1.443       .  A
C1835      C1836   1.427       .  A
C1835      F1842   1.353       .  S
C1836      C1837   1.419       .  A
C1836      H1841   1.077       .  S
C1837      C1838   1.432       .  A
C1838      F1839   1.353       .  S
C1843      C1844   1.416       .  A
C1843      C1848   1.423       .  A
C1843      H1850   1.082       .  S
C1844      C1845   1.409       .  A
C1845      C1846   1.419       .  A
C1845      F1852   1.354       .  S
C1846      C1847   1.427       .  A
C1846      H1851   1.072       .  S
C1847      C1848   1.428       .  A
C1848      F1849   1.352       .  S
C1853      C1854   1.401       .  A
C1853      C1858   1.414       .  A
C1853      H1860   1.070       .  S
C1854      C1855   1.448       .  A
C1855      C1856   1.411       .  A
C1855      F1862   1.355       .  S
C1856      C1857   1.396       .  A
C1856      H1861   1.083       .  S
C1857      C1858   1.429       .  A
C1858      F1859   1.353       .  S
C1863      C1864   1.417       .  A
C1863      C1868   1.394       .  A
C1863      H1870   1.077       .  S
C1864      C1865   1.410       .  A
C1865      C1866   1.401       .  A
C1865      F1872   1.346       .  S
C1866      C1867   1.405       .  A
C1866      H1871   1.083       .  S
C1867      C1868   1.408       .  A
C1868      F1869   1.357       .  S
