geometry optimzed in LAMMPS
_audit_creation_date              2020-11-30 
_audit_creation_method            'lammps2cif' 
_symmetry_space_group_name_H-M    'P1' 
_symmetry_Int_Tables_number       1 
_symmetry_cell_setting            triclinic 
loop_ 
_symmetry_equiv_pos_as_xyz 
  x,y,z 
_cell_length_a                    22.20921876 
_cell_length_b                    22.847942108512946 
_cell_length_c                    47.777368088767844 
_cell_angle_alpha                 92.17052547931173 
_cell_angle_beta                  87.59773613405726 
_cell_angle_gamma                 103.29217984106373 
loop_ 
_atom_site_label 
_atom_site_type_symbol 
_atom_site_fract_x 
_atom_site_fract_y 
_atom_site_fract_z 
_atom_site_charge 
N1          N  0.53132773  0.99696002  0.00598230    -0.36200
N2          N  0.51517305  0.08531085  0.46812380    -0.56700
N3          N  0.50957903  0.99546315  0.42341170    -0.36200
N4          N  0.52803814  0.90687222  0.46332396    -0.56700
C5          C  0.54489271  0.04809079  0.02208597     0.27400
C6          C  0.54878687  0.95334436  0.01989263     0.27400
C7          C  0.51811616  0.04641548  0.40853382     0.27400
C8          C  0.52217538  0.95152747  0.40583664     0.27400
C9          C  0.51425586  0.11675163  0.98923148     0.36000
C10         C  0.49661518  0.11485953  0.44727307     0.36000
C11         C  0.52552280  0.87055485  0.98369769     0.36000
C12         C  0.51666040  0.87051341  0.44023409     0.36000
C13         C  0.57167398  0.03683616  0.04643414    -0.21500
C14         C  0.57383156  0.97701799  0.04510479    -0.21500
C15         C  0.53712881  0.03466980  0.38131113    -0.21500
C16         C  0.53834457  0.97476865  0.37944158    -0.21500
C17         C  0.49061563  0.16558072  0.98286773    -0.22500
C18         C  0.47331725  0.16241514  0.45831919    -0.22500
C19         C  0.51155313  0.81046377  0.97519232    -0.22500
C20         C  0.50910717  0.81093112  0.44745867    -0.22500
C21         C  0.52923169  0.10317655  0.01631012    -0.17900
C22         C  0.53832302  0.89176323  0.01150207    -0.17900
C23         C  0.51508995  0.89021265  0.41256180    -0.17900
C24         C  0.50482116  0.10184806  0.41835432    -0.17900
H25         H  0.58715622  0.06821986  0.06360776     0.15000
H26         H  0.59122678  0.95340347  0.06104016     0.15000
H27         H  0.54777316  0.06560925  0.36425336     0.15000
H28         H  0.54982390  0.95148086  0.36057762     0.15000
H29         H  0.47722797  0.19834350  0.99731109     0.13300
H30         H  0.45520662  0.19434585  0.44697245     0.13300
H31         H  0.50761587  0.77166211  0.98803746     0.13300
H32         H  0.50088528  0.77146309  0.43365223     0.13300
H33         H  0.50431693  0.99030891  0.98839621     0.26600
H34         H  0.48901212  0.98884976  0.44327900     0.26600
N35         N  0.54811160  0.33774384  0.22186584    -0.03000
C36         C  0.55523236  0.30730829  0.24515603    -0.00500
C37         C  0.56668955  0.25175618  0.23764738    -0.23300
C38         C  0.56688622  0.24700551  0.20915598    -0.23500
C39         C  0.55548506  0.29971201  0.19989998    -0.00600
H40         H  0.57249399  0.21745037  0.25165695     0.13200
H41         H  0.57313761  0.20849577  0.19642529     0.13300
N42         N  0.47268096  0.66177604  0.20838612    -0.03000
C43         C  0.44989623  0.69439237  0.22907034    -0.00500
C44         C  0.43424781  0.74384148  0.21804233    -0.23300
C45         C  0.44713379  0.74196547  0.18990985    -0.23500
C46         C  0.47083763  0.69181614  0.18441717    -0.00600
H47         H  0.41806878  0.77936823  0.22948757     0.13200
H48         H  0.44284432  0.77542308  0.17512688     0.13300
N49         N  0.01600286  0.50538273  0.50994624    -0.36200
N50         N  0.10479944  0.49460068  0.46420749    -0.56700
N51         N  0.01165660  0.50662952  0.42395239    -0.36200
N52         N  0.92594765  0.52347881  0.46950896    -0.56700
C53         C  0.05914606  0.49949401  0.02367016     0.27400
C54         C  0.96428245  0.51222940  0.02531181     0.27400
C55         C  0.06163563  0.50804211  0.40647684     0.27400
C56         C  0.96778139  0.52349183  0.40918836     0.27400
C57         C  0.13613663  0.48016299  0.48571151     0.36000
C58         C  0.13429060  0.48143218  0.44019256     0.36000
C59         C  0.89176775  0.52658678  0.49338959     0.36000
C60         C  0.88883443  0.52568906  0.44797101     0.36000
C61         C  0.03919301  0.49725304  0.05160744    -0.21500
C62         C  0.97955810  0.50453983  0.05259541    -0.21500
C63         C  0.04919524  0.52581074  0.38029867    -0.21500
C64         C  0.99010394  0.53474220  0.38189275    -0.21500
C65         C  0.18659901  0.45908714  0.47530483    -0.22500
C66         C  0.18530132  0.45963589  0.44655842    -0.22500
C67         C  0.83294316  0.53188022  0.48693792    -0.22500
C68         C  0.83108347  0.53122143  0.45826972    -0.22500
C69         C  0.12104091  0.48717220  0.51465555    -0.17900
C70         C  0.90642970  0.52318685  0.01795681    -0.17900
C71         C  0.90740412  0.52725622  0.41919566    -0.17900
C72         C  0.11662844  0.48966558  0.41258886    -0.17900
H73         H  0.06447527  0.49041190  0.06960144     0.15000
H74         H  0.95073081  0.50419773  0.07145077     0.15000
H75         H  0.07929288  0.53101041  0.36170984     0.15000
H76         H  0.96646676  0.54773682  0.36464899     0.15000
H77         H  0.22074366  0.44463276  0.48717934     0.13300
H78         H  0.21823748  0.44546099  0.43203866     0.13300
H79         H  0.79546786  0.53704626  0.50133410     0.13300
H80         H  0.79204131  0.53589124  0.44644059     0.13300
H81         H  0.00827785  0.48885122  0.48961645     0.26600
H82         H  0.00550186  0.48862232  0.44371744     0.26600
N83         N  0.33538025  0.41851173  0.20674406    -0.03000
C84         C  0.30824589  0.39707555  0.18224654    -0.00500
C85         C  0.25613303  0.35204082  0.18749702    -0.23300
C86         C  0.24979892  0.34658066  0.21600633    -0.23500
C87         C  0.29834879  0.38834031  0.22750542    -0.00600
H88         H  0.22274519  0.32985968  0.17239144     0.13200
H89         H  0.21059472  0.31919407  0.22719604     0.13300
N90         N  0.69047179  0.58491722  0.22505150    -0.03000
C91         C  0.71690770  0.60849573  0.24943870    -0.00500
C92         C  0.77121573  0.65054962  0.24374698    -0.23300
C93         C  0.77943013  0.65211107  0.21519019    -0.23500
C94         C  0.72957505  0.61147641  0.20416252    -0.00600
H95         H  0.80458431  0.67303535  0.25880028     0.13200
H96         H  0.82003357  0.67644596  0.20376396     0.13300
O97         O  0.42091332  0.46364015  0.23375961    -0.71300
O98         O  0.58948459  0.54379357  0.24258717    -0.71600
O99         O  0.48353358  0.57892860  0.23429137    -0.71400
O100        O  0.52653571  0.42784898  0.24158297    -0.71400
O101        O  0.53561282  0.42020907  0.19628713    -0.71400
O102        O  0.50661968  0.57714145  0.18977535    -0.71400
O103        O  0.60711559  0.53325006  0.19785674    -0.71400
O104        O  0.43498109  0.46447298  0.18853748    -0.71500
V105        V  0.50547841  0.50355842  0.23719776     1.35200
V106        V  0.52088150  0.49877056  0.19395682     1.35200
C107        C  0.39874815  0.45127207  0.20973037     0.77900
C108        C  0.62733743  0.55169316  0.22180009     0.77900
C109        C  0.48876095  0.60439640  0.21092788     0.77800
C110        C  0.53653523  0.39727176  0.21995310     0.77800
C111        C  0.16308173  0.48361202  0.03546014    -0.19400
C112        C  0.21910092  0.51557952  0.54357862     0.36800
C113        C  0.25415822  0.52038410  0.06378255    -0.25400
C114        C  0.24101982  0.46689345  0.07872183     0.03200
C115        C  0.18836585  0.42171894  0.07191623     0.28000
C116        C  0.15096238  0.42982793  0.05009589    -0.24500
N117        N  0.24035416  0.57244206  0.53032342    -0.81900
H118        H  0.29392342  0.55575435  0.06914001     0.13800
C119        C  0.27900617  0.45967657  0.10292760     0.03200
N120        N  0.17123704  0.36837420  0.08796993    -0.80500
H121        H  0.11059951  0.39468389  0.04522197     0.18600
C122        C  0.27886257  0.49770059  0.12674368    -0.25300
C123        C  0.29798952  0.48259268  0.15278777     0.36700
C124        C  0.31657953  0.42790832  0.15505548    -0.19400
C125        C  0.32355233  0.39379635  0.13059819    -0.24600
C126        C  0.30671519  0.40987902  0.10445543     0.28100
H127        H  0.25909512  0.53666818  0.12555739     0.13800
N128        N  0.29264529  0.51935701  0.17743751    -0.81900
H129        H  0.33812469  0.35193053  0.13210433     0.18700
N130        N  0.31542606  0.37295657  0.08025890    -0.80900
H131        H  0.27606320  0.55681328  0.17239787     0.34300
H132        H  0.33726306  0.53611819  0.18467060     0.38800
H133        H  0.36279503  0.37458092  0.07796979     0.34300
H134        H  0.30368703  0.39078927  0.06198829     0.31000
H135        H  0.12686844  0.36601887  0.09677862     0.34300
H136        H  0.16913903  0.33123136  0.07427506     0.31000
H137        H  0.21037354  0.57863538  0.51504542     0.38800
H138        H  0.28271061  0.57198488  0.52000729     0.34300
C139        C  0.29683314  0.40711742  0.25769597    -0.19400
C140        C  0.28188250  0.36360407  0.27859239     0.36800
C141        C  0.26291561  0.37979209  0.30563580    -0.25400
C142        C  0.25647379  0.43854848  0.31217822     0.03200
C143        C  0.27537629  0.48299915  0.29188150     0.28000
C144        C  0.29594516  0.46711038  0.26496050    -0.24500
N145        N  0.28272804  0.30210736  0.27199615    -0.81900
H146        H  0.24940221  0.34532965  0.32112765     0.13800
C147        C  0.22241931  0.45049482  0.33867648     0.03200
N148        N  0.26945952  0.54335750  0.29783344    -0.80500
H149        H  0.30613339  0.50085504  0.24902752     0.18600
C150        C  0.24925164  0.49668011  0.35771293    -0.25300
C151        C  0.21611460  0.51034714  0.38205412     0.36700
C152        C  0.15588396  0.47559485  0.38801654    -0.19400
C153        C  0.12973908  0.42886462  0.36921864    -0.24600
C154        C  0.16156384  0.41688427  0.34440730     0.28100
H155        H  0.29572619  0.52277594  0.35329493     0.13800
N156        N  0.24284718  0.55986945  0.40044960    -0.81900
H157        H  0.08309807  0.40296981  0.37351675     0.18700
N158        N  0.13155797  0.37179208  0.32454722    -0.80500
H159        H  0.28730892  0.58083803  0.39313141     0.34300
H160        H  0.21593197  0.59178222  0.39980733     0.38800
H161        H  0.08682926  0.35140829  0.33181179     0.34300
H162        H  0.12656817  0.39355445  0.30622476     0.31000
H163        H  0.23978789  0.55387927  0.28337956     0.34300
H164        H  0.31305165  0.57212783  0.29475054     0.31000
H165        H  0.23804263  0.27594926  0.27564277     0.38800
H166        H  0.31180641  0.28877924  0.28589196     0.34300
C167        C  0.86485451  0.53619909  0.04156749    -0.19400
C168        C  0.88047088  0.59040999  0.05768715     0.36800
C169        C  0.84677056  0.59676805  0.08254645    -0.25400
C170        C  0.79585608  0.55162793  0.09135578     0.03200
C171        C  0.77680411  0.49954458  0.07388313     0.28000
C172        C  0.81274573  0.49174729  0.04968372    -0.24500
N173        N  0.93057766  0.63961486  0.04968380    -0.81900
H174        H  0.86124955  0.63731852  0.09539775     0.13800
C175        C  0.76605155  0.56046849  0.11927233     0.03200
N176        N  0.72158113  0.45410594  0.07982749    -0.80500
H177        H  0.80006667  0.45053465  0.03714020     0.18600
C178        C  0.74763616  0.61457652  0.12521364    -0.25300
C179        C  0.73110511  0.63059457  0.15267491     0.36700
C180        C  0.73038752  0.59054039  0.17449229    -0.19400
C181        C  0.74448063  0.53458641  0.16828968    -0.24600
C182        C  0.76353582  0.51976432  0.14103707     0.28100
H183        H  0.74958616  0.64598416  0.10857930     0.13800
N184        N  0.71656976  0.68802578  0.15857178    -0.81900
H185        H  0.74555588  0.50432122  0.18510600     0.18700
N186        N  0.78390648  0.46509021  0.13593958    -0.80500
H187        H  0.71658326  0.71098482  0.14005557     0.34300
H188        H  0.75182249  0.71415928  0.17050906     0.38800
H189        H  0.82043054  0.46547829  0.14909886     0.34300
H190        H  0.74736678  0.42917736  0.14149343     0.31000
H191        H  0.69630286  0.46682150  0.09697206     0.34300
H192        H  0.69296197  0.45110183  0.06276379     0.31000
H193        H  0.94974400  0.63228247  0.02989620     0.38800
H194        H  0.96539145  0.64314204  0.06411703     0.34300
C195        C  0.86201656  0.53646673  0.39829164    -0.19400
C196        C  0.86943648  0.59190013  0.38505192     0.36800
C197        C  0.82988799  0.59726051  0.36350784    -0.25400
C198        C  0.78101792  0.54918339  0.35559249     0.03200
C199        C  0.77111930  0.49486974  0.37016340     0.28000
C200        C  0.81213860  0.48886025  0.39112440    -0.24500
N201        N  0.91857678  0.64188763  0.39294918    -0.81900
H202        H  0.83835550  0.63884351  0.35228750     0.13800
C203        C  0.74468860  0.55558760  0.33055686     0.03200
N204        N  0.71980008  0.44599997  0.36347964    -0.80500
H205        H  0.80567648  0.44670067  0.40175739     0.18600
C206        C  0.74129789  0.51373031  0.30796922    -0.25300
C207        C  0.72176781  0.52590393  0.28152466     0.36700
C208        C  0.70607882  0.58136315  0.27749366    -0.19400
C209        C  0.70256404  0.61986795  0.30081442    -0.24600
C210        C  0.72115096  0.60733411  0.32734694     0.28100
H211        H  0.75880298  0.47372265  0.31025030     0.13800
N212        N  0.72443049  0.48524753  0.25803737    -0.81900
H213        H  0.69070583  0.66255366  0.29771850     0.18700
N214        N  0.71972500  0.64871653  0.35065720    -0.80500
H215        H  0.73986291  0.44789531  0.26416295     0.34300
H216        H  0.67918691  0.46882508  0.25149790     0.38800
H217        H  0.70169887  0.68472797  0.34479405     0.34300
H218        H  0.68914220  0.62594975  0.36597639     0.31000
H219        H  0.71886363  0.40936938  0.37611562     0.34300
H220        H  0.67917119  0.46048957  0.36835544     0.31000
H221        H  0.90962925  0.65403151  0.41376094     0.38800
H222        H  0.91844697  0.67923237  0.38098389     0.34300
C223        C  0.54978158  0.30756601  0.16958361    -0.19400
C224        C  0.49109918  0.29572680  0.15727129     0.36800
C225        C  0.48606461  0.27660806  0.12896644    -0.25400
C226        C  0.53755171  0.26604063  0.11310503     0.03200
C227        C  0.59663507  0.28376235  0.12466998     0.28000
C228        C  0.60224400  0.30540541  0.15250336    -0.24500
N229        N  0.43508268  0.29672809  0.17332249    -0.81900
H230        H  0.44060474  0.26466605  0.12007895     0.13800
C231        C  0.52850817  0.22790245  0.08679350     0.03200
N232        N  0.65050572  0.27459822  0.10916275    -0.80500
H233        H  0.64726831  0.31369351  0.16178721     0.18600
C234        C  0.56536185  0.24635583  0.06265485    -0.25300
C235        C  0.56665990  0.20669338  0.03945634     0.36700
C236        C  0.52807881  0.14813614  0.03983660    -0.19400
C237        C  0.48818705  0.13114904  0.06311934    -0.24600
C238        C  0.48855853  0.16981902  0.08673188     0.28100
H239        H  0.59526675  0.29108723  0.06241294     0.13800
N240        N  0.60797051  0.22513726  0.01581345    -0.81900
H241        H  0.45809460  0.08648352  0.06321056     0.18700
N242        N  0.45009563  0.14930685  0.11100787    -0.80500
H243        H  0.63280415  0.26959788  0.01872313     0.34300
H244        H  0.64035777  0.19832084  0.01478988     0.38800
H245        H  0.42298557  0.10603053  0.10736112     0.34300
H246        H  0.47923345  0.14614103  0.12724554     0.31000
H247        H  0.67023329  0.24559838  0.12026684     0.34300
H248        H  0.68240136  0.31606603  0.10800315     0.31000
H249        H  0.44375398  0.30907409  0.19421632     0.38800
H250        H  0.41608371  0.33012175  0.16519448     0.34300
C251        C  0.54725623  0.32277537  0.27530973    -0.19400
C252        C  0.48718986  0.30903488  0.28796368     0.36800
C253        C  0.47811210  0.28638765  0.31517546    -0.25400
C254        C  0.52765530  0.27500812  0.32990690     0.03200
C255        C  0.58823725  0.29393291  0.31819236     0.28000
C256        C  0.59753871  0.32042451  0.29181174    -0.24500
N257        N  0.43389747  0.31168043  0.27262829    -0.81900
H258        H  0.43132682  0.27281536  0.32388055     0.13800
C259        C  0.51489408  0.23530219  0.35483594     0.03200
N260        N  0.63983019  0.27999024  0.33133929    -0.80500
H261        H  0.64378536  0.32950535  0.28224689     0.18600
C262        C  0.47228794  0.17931045  0.35272652    -0.25300
C263        C  0.46484950  0.13703706  0.37411618     0.36700
C264        C  0.50314239  0.14938144  0.39752971    -0.19400
C265        C  0.54252431  0.20690081  0.40051075    -0.24600
C266        C  0.54733877  0.25021033  0.37984087     0.28100
H267        H  0.44592258  0.16773305  0.33393621     0.13800
N268        N  0.41972779  0.08093620  0.37185495    -0.81900
H269        H  0.57065282  0.21799600  0.41879715     0.18700
N270        N  0.58492905  0.30946402  0.38442348    -0.80500
H271        H  0.39552132  0.07857564  0.35338884     0.34300
H272        H  0.38735222  0.08007239  0.38845332     0.38800
H273        H  0.56764495  0.32808887  0.40248732     0.34300
H274        H  0.62983223  0.30564514  0.38830233     0.31000
H275        H  0.65930735  0.25224013  0.31755912     0.34300
H276        H  0.67297466  0.32010995  0.33450112     0.31000
H277        H  0.43227586  0.28405509  0.25460651     0.38800
H278        H  0.43808094  0.35592306  0.26660464     0.34300
C279        C  0.49816796  0.68239569  0.15633281    -0.19400
C280        C  0.55616230  0.71971088  0.14876381     0.36800
C281        C  0.56795718  0.73938281  0.12120446    -0.25400
C282        C  0.52248235  0.72263608  0.10101698     0.03200
C283        C  0.46951004  0.67677437  0.10730123     0.28000
C284        C  0.45733965  0.65773244  0.13510832    -0.24500
N285        N  0.60094410  0.74344850  0.16943561    -0.81900
H286        H  0.60983307  0.77304637  0.11646320     0.13800
C287        C  0.52520260  0.76147230  0.07627664     0.03200
N288        N  0.42610204  0.65338474  0.08590223    -0.80500
H289        H  0.41289487  0.62881262  0.14076900     0.18600
C290        C  0.57829766  0.77429961  0.05841596    -0.25300
C291        C  0.58456911  0.81659869  0.03713564     0.36700
C292        C  0.53636233  0.84674927  0.03358500    -0.19400
C293        C  0.48344749  0.83360801  0.05127001    -0.24600
C294        C  0.47770013  0.79207131  0.07259749     0.28100
H295        H  0.61570772  0.75219092  0.06140290     0.13800
N296        N  0.64097112  0.82903091  0.02028718    -0.81900
H297        H  0.44652614  0.85665871  0.04876835     0.18700
N298        N  0.42448250  0.78310387  0.09131356    -0.80500
H299        H  0.64270707  0.78999931  0.00841008     0.34300
H300        H  0.64177399  0.86290126  0.00615817     0.38800
H301        H  0.42257304  0.82458949  0.10090441     0.34300
H302        H  0.38506697  0.76864931  0.07942674     0.31000
H303        H  0.38908258  0.62081290  0.09406693     0.34300
H304        H  0.44879250  0.63141321  0.07071094     0.31000
H305        H  0.60979157  0.70720031  0.17997650     0.38800
H306        H  0.58194206  0.76995339  0.18402466     0.34300
C307        C  0.44938743  0.68726927  0.25989698    -0.19400
C308        C  0.40070063  0.70138058  0.27693996     0.36800
C309        C  0.41215725  0.72224696  0.30449203    -0.25400
C310        C  0.46897583  0.72324066  0.31673824     0.03200
C311        C  0.51138796  0.69494528  0.30155698     0.28000
C312        C  0.50359117  0.68213061  0.27276715    -0.24500
N313        N  0.33997200  0.69752320  0.26659926    -0.81900
H314        H  0.37695631  0.74052780  0.31570996     0.13800
C315        C  0.48454323  0.76003127  0.34332152     0.03200
N316        N  0.56288424  0.67967873  0.31444069    -0.80500
H317        H  0.54137002  0.67059767  0.26037036     0.18600
C318        C  0.43710298  0.76251910  0.36356243    -0.25300
C319        C  0.44560390  0.80567907  0.38546677     0.36700
C320        C  0.50462797  0.84382992  0.38934817    -0.19400
C321        C  0.55333474  0.83888027  0.37049889    -0.24600
C322        C  0.54312865  0.80001521  0.34681656     0.28100
H323        H  0.39175853  0.73279897  0.36161295     0.13800
N324        N  0.39268108  0.81186877  0.40255466    -0.81900
H325        H  0.59866761  0.86829025  0.37318365     0.18700
N326        N  0.59136303  0.80442529  0.32560962    -0.80500
H327        H  0.40007659  0.80401054  0.42337058     0.34300
H328        H  0.38753098  0.85601923  0.40129457     0.38800
H329        H  0.60251712  0.84851557  0.31855590     0.34300
H330        H  0.63046802  0.79631557  0.33479253     0.31000
H331        H  0.55898738  0.63348070  0.31095604     0.34300
H332        H  0.55945963  0.68551869  0.33617544     0.31000
H333        H  0.33520671  0.67700098  0.24664365     0.38800
H334        H  0.33347019  0.74118416  0.26526201     0.34300
N335        N  0.52547996  0.99485293  0.50833137    -0.36200
N336        N  0.52593246  0.08661598  0.96549377    -0.56700
N337        N  0.51582176  0.99424341  0.92094979    -0.36200
N338        N  0.52789362  0.90584864  0.96137945    -0.56700
C339        C  0.53764982  0.04557463  0.52475624     0.27400
C340        C  0.54267208  0.95116852  0.52237163     0.27400
C341        C  0.52823263  0.04499102  0.90584070     0.27400
C342        C  0.52397359  0.94823974  0.90356112     0.27400
C343        C  0.50407601  0.11409187  0.49235348     0.36000
C344        C  0.51021950  0.11637298  0.94407649     0.36000
C345        C  0.52500687  0.87034316  0.48527406     0.36000
C346        C  0.51395681  0.86833069  0.93881287     0.36000
C347        C  0.56321221  0.03388071  0.54939408    -0.21500
C348        C  0.56573181  0.97420753  0.54799461    -0.21500
C349        C  0.54498838  0.03106150  0.87856353    -0.21500
C350        C  0.54083014  0.97007242  0.87693646    -0.21500
C351        C  0.47802058  0.16192485  0.48689145    -0.22500
C352        C  0.48840961  0.16553918  0.95421191    -0.22500
C353        C  0.51350102  0.81079611  0.47599404    -0.22500
C354        C  0.50451179  0.80902918  0.94677613    -0.22500
C355        C  0.52148304  0.10050502  0.51907256    -0.17900
C356        C  0.53405704  0.89004817  0.51352102    -0.17900
C357        C  0.51315177  0.88682030  0.91087041    -0.17900
C358        C  0.51989531  0.10235315  0.91545988    -0.17900
H359        H  0.57746822  0.06476839  0.56688322     0.15000
H360        H  0.58233712  0.95034138  0.56408097     0.15000
H361        H  0.55727669  0.06129283  0.86128728     0.15000
H362        H  0.54926194  0.94534737  0.85803154     0.15000
H363        H  0.46441090  0.19355215  0.50190982     0.13300
H364        H  0.47279007  0.19810579  0.94219319     0.13300
H365        H  0.50920101  0.77134344  0.48843611     0.13300
H366        H  0.49451088  0.76877858  0.93351467     0.13300
H367        H  0.49996662  0.98854963  0.49049357     0.26600
H368        H  0.49575647  0.98978138  0.94103413     0.26600
N369        N  0.55596674  0.33929569  0.72303345    -0.03000
C370        C  0.56826325  0.31165456  0.74626343    -0.00500
C371        C  0.58523182  0.25843408  0.73882288    -0.23300
C372        C  0.58320864  0.25230074  0.71039691    -0.23500
C373        C  0.56491987  0.30180492  0.70121241    -0.00600
H374        H  0.59677712  0.22676353  0.75281286     0.13200
H375        H  0.59295136  0.21511041  0.69768922     0.13300
N376        N  0.45382554  0.65030804  0.70879537    -0.03000
C377        C  0.42734382  0.67973443  0.72951983    -0.00500
C378        C  0.40105413  0.72244983  0.71814734    -0.23300
C379        C  0.41127151  0.71951131  0.68982387    -0.23500
C380        C  0.44429511  0.67579426  0.68454258    -0.00600
H381        H  0.38041416  0.75535332  0.72937048     0.13200
H382        H  0.40056698  0.74970598  0.67483674     0.13300
N383        N  0.01330734  0.50954119  0.00784130    -0.36200
N384        N  0.09984650  0.48868727  0.96325239    -0.56700
N385        N  0.00629270  0.49565839  0.92198797    -0.36200
N386        N  0.92038396  0.51765150  0.96655684    -0.56700
C387        C  0.06657610  0.50483362  0.52483223     0.27400
C388        C  0.97382038  0.52296266  0.52769622     0.27400
C389        C  0.05536423  0.49218609  0.90465131     0.27400
C390        C  0.96307183  0.51165972  0.90638759     0.27400
C391        C  0.13463521  0.48330799  0.98522106     0.36000
C392        C  0.13013686  0.47407348  0.93982010     0.36000
C393        C  0.88674754  0.52465444  0.99017252     0.36000
C394        C  0.88516303  0.52232878  0.94467685     0.36000
C395        C  0.05600874  0.52143765  0.55248697    -0.21500
C396        C  0.99770490  0.53260951  0.55432604    -0.21500
C397        C  0.04257312  0.50501902  0.87765859    -0.21500
C398        C  0.98465317  0.51692259  0.87872598    -0.21500
C399        C  0.18758496  0.46545809  0.97564949    -0.22500
C400        C  0.18441821  0.45895744  0.94701174    -0.22500
C401        C  0.82965942  0.53381032  0.98323738    -0.22500
C402        C  0.82863607  0.53228170  0.95449472    -0.22500
C403        C  0.11814928  0.49095849  0.01393711    -0.17900
C404        C  0.91350377  0.52858370  0.52099595    -0.17900
C405        C  0.90419647  0.52092278  0.91598928    -0.17900
C406        C  0.11106661  0.47633912  0.91193423    -0.17900
H407        H  0.08702029  0.52495179  0.56966955     0.15000
H408        H  0.97553518  0.54604020  0.57330524     0.15000
H409        H  0.07206864  0.50605807  0.85898220     0.15000
H410        H  0.96130698  0.52833795  0.86099290     0.15000
H411        H  0.22404273  0.45659624  0.98803683     0.13300
H412        H  0.21850303  0.44490559  0.93311242     0.13300
H413        H  0.79250549  0.54099282  0.99736801     0.13300
H414        H  0.79077335  0.53855834  0.94228250     0.13300
H415        H  0.01666078  0.51858480  0.98667673     0.26600
H416        H  0.00081946  0.48250911  0.94265297     0.26600
N417        N  0.33322571  0.40258427  0.70868697    -0.03000
C418        C  0.30693167  0.37696091  0.68456169    -0.00500
C419        C  0.26005549  0.32737782  0.69075114    -0.23300
C420        C  0.25564592  0.32355561  0.71936973    -0.23500
C421        C  0.30022656  0.37068451  0.73002434    -0.00600
H422        H  0.22818096  0.30054065  0.67617263     0.13200
H423        H  0.21970474  0.29322870  0.73113886     0.13300
N424        N  0.68254118  0.58845777  0.72368269    -0.03000
C425        C  0.70963540  0.61468503  0.74747593    -0.00500
C426        C  0.76066846  0.65983466  0.74052219    -0.23300
C427        C  0.76621724  0.66014500  0.71179093    -0.23500
C428        C  0.71813268  0.61562534  0.70194474    -0.00600
H429        H  0.79422868  0.68530056  0.75478739     0.13200
H430        H  0.80460264  0.68590909  0.69950147     0.13300
O431        O  0.41709825  0.45549078  0.73497883    -0.71300
O432        O  0.58397833  0.54257276  0.74257073    -0.71600
O433        O  0.47485820  0.57218862  0.73496201    -0.71400
O434        O  0.52605175  0.42562354  0.74246308    -0.71400
O435        O  0.53669823  0.41846626  0.69719933    -0.71400
O436        O  0.49352875  0.56905771  0.69009397    -0.71400
O437        O  0.59938283  0.53393261  0.69757728    -0.71400
O438        O  0.43039431  0.45312682  0.68972289    -0.71500
V439        V  0.50075960  0.49897439  0.73787319     1.35200
V440        V  0.51479885  0.49371822  0.69452502     1.35200
C441        C  0.39504373  0.43965048  0.71112918     0.77900
C442        C  0.62036025  0.55261273  0.72132160     0.77900
C443        C  0.47587940  0.59602306  0.71140190     0.77800
C444        C  0.53926039  0.39647244  0.72093811     0.77800
C445        C  0.16375062  0.47409317  0.53595481    -0.19400
C446        C  0.21580663  0.52952760  0.04235172     0.36800
C447        C  0.25398641  0.50199852  0.56544903    -0.25400
C448        C  0.23556022  0.44787738  0.57984553     0.03200
C449        C  0.18090650  0.40654826  0.57190637     0.28000
C450        C  0.14594715  0.41978463  0.55012233    -0.24500
N451        N  0.23084007  0.58645017  0.02881303    -0.81900
H452        H  0.29548356  0.53437176  0.57149544     0.13800
C453        C  0.27046638  0.43666372  0.60458604     0.03200
N454        N  0.15961888  0.35168528  0.58656085    -0.80500
H455        H  0.10359049  0.38791614  0.54464318     0.18600
C456        C  0.27366214  0.47589693  0.62817663    -0.25300
C457        C  0.29306152  0.46085802  0.65422684     0.36700
C458        C  0.31016827  0.40544496  0.65675115    -0.19400
C459        C  0.31238856  0.36899090  0.63253798    -0.24600
C460        C  0.29382513  0.38415149  0.60650180     0.28100
H461        H  0.25669391  0.51649374  0.62679086     0.13800
N462        N  0.28950772  0.49884490  0.67863178    -0.81900
H463        H  0.32516046  0.32625897  0.63423940     0.18700
N464        N  0.29700124  0.34393131  0.58285752    -0.80900
H465        H  0.27218788  0.53583578  0.67359439     0.34300
H466        H  0.33467698  0.51632498  0.68502655     0.38800
H467        H  0.34323620  0.34121851  0.57986943     0.34300
H468        H  0.28556447  0.36132264  0.56445679     0.31000
H469        H  0.11527628  0.35093707  0.59501851     0.34300
H470        H  0.15614576  0.31585339  0.57198430     0.31000
H471        H  0.19851037  0.58928027  0.01398137     0.38800
H472        H  0.27327841  0.58973072  0.01797100     0.34300
C473        C  0.29740767  0.39172375  0.75985253    -0.19400
C474        C  0.28762715  0.35043794  0.78173924     0.36800
C475        C  0.26800475  0.36744134  0.80852566    -0.25400
C476        C  0.25579398  0.42454195  0.81379989     0.03200
C477        C  0.26947673  0.46714394  0.79248765     0.28000
C478        C  0.29080180  0.45067031  0.76584442    -0.24500
N479        N  0.29446465  0.29012610  0.77648041    -0.81900
H480        H  0.25851594  0.33455359  0.82484561     0.13800
C481        C  0.22112971  0.43599868  0.84010416     0.03200
N482        N  0.25747331  0.52575065  0.79718116    -0.80500
H483        H  0.29709203  0.48262256  0.74917076     0.18600
C484        C  0.24463986  0.48589215  0.85779647    -0.25300
C485        C  0.21005574  0.49980272  0.88154292     0.36700
C486        C  0.15198656  0.46168809  0.88829020    -0.19400
C487        C  0.12951209  0.41092214  0.87110346    -0.24600
C488        C  0.16259072  0.39850769  0.84677079     0.28100
H489        H  0.28939853  0.51478023  0.85267421     0.13800
N490        N  0.23303795  0.55284588  0.89855945    -0.81900
H491        H  0.08452194  0.38231241  0.87612688     0.18700
N492        N  0.13586827  0.34921172  0.82820752    -0.80500
H493        H  0.27633340  0.57603577  0.89079827     0.34300
H494        H  0.20287244  0.58147145  0.89689918     0.38800
H495        H  0.09268003  0.32616753  0.83610487     0.34300
H496        H  0.12793061  0.36739839  0.80930455     0.31000
H497        H  0.22561776  0.53146054  0.78261737     0.34300
H498        H  0.29882758  0.55753491  0.79335733     0.31000
H499        H  0.25170684  0.26090315  0.78080755     0.38800
H500        H  0.32574032  0.28145544  0.79064074     0.34300
C501        C  0.87042033  0.53856680  0.54459851    -0.19400
C502        C  0.87770079  0.59448028  0.55940724     0.36800
C503        C  0.83942066  0.59915493  0.58303857    -0.25400
C504        C  0.79245498  0.55025296  0.59177107     0.03200
C505        C  0.78118085  0.49633070  0.57539087     0.28000
C506        C  0.82125273  0.49066995  0.55233816    -0.24500
N507        N  0.92313346  0.64722246  0.55115093    -0.81900
H508        H  0.84713921  0.64129865  0.59503198     0.13800
C509        C  0.75872026  0.55671565  0.61886271     0.03200
N510        N  0.72782635  0.44878598  0.58133640    -0.80500
H511        H  0.81426641  0.44864044  0.54029161     0.18600
C512        C  0.72782793  0.60382516  0.62274812    -0.25300
C513        C  0.70942773  0.62137575  0.64976406     0.36700
C514        C  0.72031587  0.58986660  0.67312267    -0.19400
C515        C  0.74651443  0.53982092  0.66900032    -0.24600
C516        C  0.76714343  0.52393003  0.64224337     0.28100
H517        H  0.72184354  0.62946582  0.60486146     0.13800
N518        N  0.68149869  0.67205528  0.65366709    -0.81900
H519        H  0.75617636  0.51631880  0.68698014     0.18700
N520        N  0.80163426  0.47808747  0.63933739    -0.80500
H521        H  0.67537915  0.68947614  0.63432682     0.34300
H522        H  0.71231292  0.70598052  0.66448548     0.38800
H523        H  0.84045408  0.49084371  0.65170737     0.34300
H524        H  0.77394135  0.43837723  0.64726408     0.31000
H525        H  0.72277110  0.41535986  0.56545378     0.34300
H526        H  0.73531537  0.42820875  0.59953419     0.31000
H527        H  0.94736311  0.63957441  0.53273831     0.38800
H528        H  0.95535823  0.65820909  0.56697438     0.34300
C529        C  0.86070983  0.53248986  0.89467266    -0.19400
C530        C  0.87025241  0.58870613  0.88191534     0.36800
C531        C  0.83038559  0.59700773  0.86097274    -0.25400
C532        C  0.77975324  0.55088337  0.85291981     0.03200
C533        C  0.76855640  0.49551915  0.86673392     0.28000
C534        C  0.80950145  0.48672421  0.88719441    -0.24500
N535        N  0.92142131  0.63664193  0.88981934    -0.81900
H536        H  0.83999555  0.63931284  0.85030021     0.13800
C537        C  0.74333260  0.55989524  0.82825879     0.03200
N538        N  0.71580164  0.44838247  0.85989324    -0.80500
H539        H  0.80165237  0.44389915  0.89735318     0.18600
C540        C  0.73715816  0.51826859  0.80550321    -0.25300
C541        C  0.71702771  0.53163495  0.77937699     0.36700
C542        C  0.70331709  0.58822644  0.77577654    -0.19400
C543        C  0.70316918  0.62708012  0.79928068    -0.24600
C544        C  0.72224294  0.61323853  0.82553127     0.28100
H545        H  0.75273572  0.47706547  0.80738872     0.13800
N546        N  0.71683898  0.49055638  0.75581803    -0.81900
H547        H  0.69267331  0.67052428  0.79658467     0.18700
N548        N  0.72318028  0.65451232  0.84906308    -0.80500
H549        H  0.73247679  0.45299086  0.76150530     0.34300
H550        H  0.67083993  0.47430495  0.75035383     0.38800
H551        H  0.70668860  0.69168339  0.84354926     0.34300
H552        H  0.69226545  0.63240560  0.86445727     0.31000
H553        H  0.71413803  0.41084237  0.87195007     0.34300
H554        H  0.67606037  0.46401110  0.86544691     0.31000
H555        H  0.91383928  0.64837286  0.91083231     0.38800
H556        H  0.92251414  0.67489854  0.87831779     0.34300
C557        C  0.55568040  0.30805504  0.67116385    -0.19400
C558        C  0.49582395  0.29475926  0.65996007     0.36800
C559        C  0.48903837  0.27599853  0.63172155    -0.25400
C560        C  0.53972034  0.26588243  0.61512380     0.03200
C561        C  0.59971435  0.28491878  0.62566267     0.28000
C562        C  0.60712410  0.30754861  0.65322033    -0.24500
N563        N  0.44058936  0.29360196  0.67696328    -0.81900
H564        H  0.44289132  0.26328738  0.62356291     0.13800
C565        C  0.52893654  0.22669163  0.58925417     0.03200
N566        N  0.65281918  0.27581562  0.60953729    -0.80500
H567        H  0.65304234  0.31744739  0.66169448     0.18600
C568        C  0.56456347  0.24378933  0.56464323    -0.25300
C569        C  0.56320735  0.20343107  0.54157334     0.36700
C570        C  0.52276315  0.14592641  0.54250021    -0.19400
C571        C  0.48435354  0.13017289  0.56634301    -0.24600
C572        C  0.48795043  0.16915203  0.58995663     0.28100
H573        H  0.59541001  0.28800229  0.56384902     0.13800
N574        N  0.60367856  0.22000915  0.51747489    -0.81900
H575        H  0.45324095  0.08605051  0.56690797     0.18700
N576        N  0.45184133  0.14943153  0.61497969    -0.80500
H577        H  0.63051345  0.26380388  0.52010806     0.34300
H578        H  0.63444093  0.19153199  0.51611100     0.38800
H579        H  0.42380712  0.10634330  0.61187181     0.34300
H580        H  0.48254622  0.14604397  0.63051223     0.31000
H581        H  0.67375843  0.24756952  0.62056607     0.34300
H582        H  0.68420336  0.31738195  0.60780225     0.31000
H583        H  0.45036753  0.30518679  0.69783893     0.38800
H584        H  0.41962638  0.32631515  0.66957850     0.34300
C585        C  0.56277511  0.32899626  0.77627969    -0.19400
C586        C  0.50410599  0.31693766  0.79042425     0.36800
C587        C  0.49897329  0.29757711  0.81814039    -0.25400
C588        C  0.54996926  0.28532282  0.83134523     0.03200
C589        C  0.60923989  0.30370068  0.81832203     0.28000
C590        C  0.61527009  0.32899578  0.79175483    -0.24500
N591        N  0.44782917  0.31615294  0.77653522    -0.81900
H592        H  0.45328812  0.28482566  0.82810391     0.13800
C593        C  0.53850003  0.24237196  0.85489188     0.03200
N594        N  0.66236061  0.28981183  0.83012574    -0.80500
H595        H  0.66046572  0.33779803  0.78115015     0.18600
C596        C  0.49337896  0.18821914  0.85181706    -0.25300
C597        C  0.48426376  0.14343809  0.87195875     0.36700
C598        C  0.52367939  0.15102081  0.89485438    -0.19400
C599        C  0.56707808  0.20599842  0.89854768    -0.24600
C600        C  0.57332350  0.25223340  0.87932713     0.28100
H601        H  0.46560022  0.18032474  0.83335686     0.13800
N602        N  0.43559795  0.09007224  0.86912550    -0.81900
H603        H  0.59612558  0.21320448  0.91660386     0.18700
N604        N  0.61395480  0.30945509  0.88506418    -0.80500
H605        H  0.41095981  0.09132606  0.85112589     0.34300
H606        H  0.40437928  0.08995754  0.88619815     0.38800
H607        H  0.59895644  0.32664581  0.90402673     0.34300
H608        H  0.65822472  0.30256841  0.88783615     0.31000
H609        H  0.67980781  0.26122219  0.81597354     0.34300
H610        H  0.69619057  0.32974084  0.83222981     0.31000
H611        H  0.45556967  0.32471010  0.75528428     0.38800
H612        H  0.42955283  0.35101739  0.78552351     0.34300
C613        C  0.47740708  0.67375516  0.65719639    -0.19400
C614        C  0.53379568  0.71632333  0.65239841     0.36800
C615        C  0.54938875  0.73892499  0.62553657    -0.25400
C616        C  0.50904299  0.72061658  0.60340747     0.03200
C617        C  0.45757089  0.67178476  0.60721083     0.28000
C618        C  0.44201792  0.64898240  0.63419874    -0.24500
N619        N  0.57243685  0.74219694  0.67506123    -0.81900
H620        H  0.58969053  0.77558799  0.62271801     0.13800
C621        C  0.51450670  0.76011039  0.57883808     0.03200
N622        N  0.41875564  0.64891423  0.58410198    -0.80500
H623        H  0.39862340  0.61654416  0.63782702     0.18600
C624        C  0.56908881  0.77288536  0.56197518    -0.25300
C625        C  0.57676453  0.81463742  0.54045822     0.36700
C626        C  0.52894144  0.84423364  0.53555188    -0.19400
C627        C  0.47472266  0.83152929  0.55245365    -0.24600
C628        C  0.46737935  0.79047406  0.57409863     0.28100
H629        H  0.60625025  0.75104368  0.56586879     0.13800
N630        N  0.63409660  0.82757790  0.52453755    -0.81900
H631        H  0.43821567  0.85464723  0.54915086     0.18700
N632        N  0.41294761  0.78165740  0.59206517    -0.80500
H633        H  0.62493914  0.81730052  0.50341474     0.34300
H634        H  0.65360791  0.87363601  0.52665725     0.38800
H635        H  0.41034704  0.82324429  0.60131240     0.34300
H636        H  0.37438668  0.76688557  0.57964657     0.31000
H637        H  0.38219536  0.61387067  0.59051115     0.34300
H638        H  0.44539347  0.63028706  0.56924240     0.31000
H639        H  0.58426667  0.70723451  0.68548688     0.38800
H640        H  0.54725573  0.76425441  0.68915090     0.34300
C641        C  0.43429882  0.67770557  0.76030850    -0.19400
C642        C  0.38710382  0.68900762  0.77913329     0.36800
C643        C  0.40246825  0.71207410  0.80603477    -0.25400
C644        C  0.46201417  0.71664788  0.81630291     0.03200
C645        C  0.50414544  0.69099208  0.79948755     0.28000
C646        C  0.49229511  0.67773589  0.77102655    -0.24500
N647        N  0.32350476  0.67892130  0.77149163    -0.81900
H648        H  0.36744556  0.72828225  0.81842825     0.13800
C649        C  0.47959561  0.75360952  0.84273194     0.03200
N650        N  0.55867583  0.67773857  0.81046557    -0.80500
H651        H  0.52933783  0.66871233  0.75730280     0.18600
C652        C  0.43386205  0.75483492  0.86397394    -0.25300
C653        C  0.44237121  0.79902597  0.88549525     0.36700
C654        C  0.50097710  0.83925318  0.88812503    -0.19400
C655        C  0.54881973  0.83401759  0.86881150    -0.24600
C656        C  0.53778160  0.79473807  0.84533556     0.28100
H657        H  0.38927032  0.72341731  0.86305590     0.13800
N658        N  0.38962462  0.80309961  0.90336893    -0.81900
H659        H  0.59417157  0.86376955  0.87090267     0.18700
N660        N  0.58478419  0.79990831  0.82352543    -0.80500
H661        H  0.37808278  0.76434675  0.91529933     0.34300
H662        H  0.39894907  0.84000065  0.91726286     0.38800
H663        H  0.59455909  0.84391689  0.81640066     0.34300
H664        H  0.62489624  0.79275395  0.83217144     0.31000
H665        H  0.55662189  0.63207166  0.80627429     0.34300
H666        H  0.55760553  0.68226295  0.83230900     0.31000
H667        H  0.31602107  0.65598429  0.75218761     0.38800
H668        H  0.31231385  0.72072250  0.77007503     0.34300
loop_ 
_geom_bond_atom_site_label_1 
_geom_bond_atom_site_label_2 
_geom_bond_distance 
_geom_bond_site_symmetry_2 
_ccdc_geom_bond_type 
N1            C6   1.354       .  A
N1            C5   1.355   1_565  A
N1           H33   1.039   1_554  S
N2           C10   1.353       .  A
N2          C343   1.351       .  A
N3            C8   1.355       .  A
N3            C7   1.359   1_565  A
N3           H34   1.037       .  S
N4           C12   1.352       .  A
N4          C345   1.355       .  A
C5           C13   1.387       .  A
C5           C21   1.420       .  A
C6           C22   1.417       .  A
C6           C14   1.386       .  A
C7           C15   1.386       .  A
C7           C24   1.424       .  A
C8           C23   1.421       .  A
C8           C16   1.388       .  A
C9          N336   1.351       .  A
C9           C21   1.412   1_556  A
C9           C17   1.386       .  A
C10          C24   1.415       .  A
C10          C18   1.385       .  A
C11         N338   1.353       .  A
C11          C19   1.385       .  A
C11          C22   1.414   1_556  A
C12          C20   1.388       .  A
C12          C23   1.417       .  A
C13          C14   1.378   1_545  A
C13          H25   1.082       .  S
C14          H26   1.082       .  S
C15          C16   1.375   1_545  A
C15          H27   1.082       .  S
C16          H28   1.080       .  S
C17         C352   1.372       .  A
C17          H29   1.082       .  S
C18         C351   1.374       .  A
C18          H30   1.082       .  S
C19         C354   1.371       .  A
C19          H31   1.082       .  S
C20         C353   1.371       .  A
C20          H32   1.082       .  S
C21         C236   1.497       .  S
C22         C292   1.494       .  S
C23         C320   1.492       .  S
C24         C264   1.508       .  S
N35          C39   1.366       .  A
N35          C36   1.368       .  A
N35         C110   1.448       .  S
C36          C37   1.382       .  A
C36         C251   1.483       .  S
C37          C38   1.361       .  A
C37          H40   1.083       .  S
C38          C39   1.378       .  A
C38          H41   1.083       .  S
C39         C223   1.480       .  S
N42          C46   1.364       .  A
N42          C43   1.365       .  A
N42         C109   1.446       .  S
C43          C44   1.384       .  A
C43         C307   1.487       .  S
C44          C45   1.364       .  A
C44          H47   1.082       .  S
C45          C46   1.379       .  A
C45          H48   1.083       .  S
C46         C279   1.478       .  S
N49         C388   1.356   1_455  A
N49         C387   1.357       .  A
N49          H81   1.035       .  S
N50          C57   1.356       .  A
N50          C58   1.356       .  A
N51          C56   1.359   1_455  A
N51          C55   1.356       .  A
N51          H82   1.036       .  S
N52          C59   1.352       .  A
N52          C60   1.355       .  A
C53         N383   1.359       .  A
C53          C61   1.388       .  A
C53         C403   1.425       .  A
C54         N383   1.355   1_655  A
C54          C70   1.425       .  A
C54          C62   1.388       .  A
C55          C63   1.387       .  A
C55          C72   1.424       .  A
C56          C71   1.425       .  A
C56          C64   1.388       .  A
C57          C69   1.421       .  A
C57          C65   1.385       .  A
C58          C72   1.423       .  A
C58          C66   1.387       .  A
C59          C67   1.388       .  A
C59         C404   1.419       .  A
C60          C68   1.386       .  A
C60          C71   1.418       .  A
C61          C62   1.371   1_455  A
C61          H73   1.082       .  S
C62          H74   1.082       .  S
C63          C64   1.372   1_455  A
C63          H75   1.082       .  S
C64          H76   1.081       .  S
C65          C66   1.376       .  A
C65          H77   1.082       .  S
C66          H78   1.082       .  S
C67          C68   1.371       .  A
C67          H79   1.082       .  S
C68          H80   1.082       .  S
C69         C387   1.422       .  A
C69         C445   1.503       .  S
C70         C393   1.419   1_554  A
C70         C167   1.492       .  S
C71         C195   1.502       .  S
C72         C152   1.502       .  S
N83          C87   1.363       .  A
N83          C84   1.361       .  A
N83         C107   1.444       .  S
C84          C85   1.382       .  A
C84         C124   1.486       .  S
C85          C86   1.371       .  A
C85          H88   1.083       .  S
C86          C87   1.383       .  A
C86          H89   1.082       .  S
C87         C139   1.490       .  S
N90          C94   1.360       .  A
N90          C91   1.363       .  A
N90         C108   1.444       .  S
C91          C92   1.383       .  A
C91         C208   1.485       .  S
C92          C93   1.370       .  A
C92          H95   1.083       .  S
C93          C94   1.380       .  A
C93          H96   1.082       .  S
C94         C180   1.480       .  S
O97         V105   1.901       .  S
O97         C107   1.265       .  A
O98         V105   1.904       .  S
O98         C108   1.265       .  A
O99         V105   1.906       .  S
O99         C109   1.267       .  A
O100        V105   1.914       .  S
O100        C110   1.266       .  A
O101        V106   1.905       .  S
O101        C110   1.267       .  A
O102        V106   1.908       .  S
O102        C109   1.264       .  A
O103        V106   1.910       .  S
O103        C108   1.268       .  A
O104        V106   1.913       .  S
O104        C107   1.268       .  A
V105        V106   2.083       .  T
C111        C116   1.403       .  A
C111        C446   1.422       .  A
C111        C403   1.503       .  S
C112        C445   1.421       .  A
C112        C447   1.411       .  A
C112        N117   1.438       .  S
C113        C114   1.405       .  A
C113        C446   1.410       .  A
C113        H118   1.083       .  S
C114        C115   1.411       .  A
C114        C119   1.496       .  S
C115        C116   1.403       .  A
C115        N120   1.432       .  S
C116        H121   1.084       .  S
N117        H137   1.043       .  S
N117        H138   1.046       .  S
C119        C122   1.406       .  A
C119        C126   1.418       .  A
N120        H135   1.046       .  S
N120        H136   1.045       .  S
C122        C123   1.411       .  A
C122        H127   1.084       .  S
C123        C124   1.412       .  A
C123        N128   1.437       .  S
C124        C125   1.403       .  A
C125        C126   1.404       .  A
C125        H129   1.084       .  S
C126        N130   1.438       .  S
N128        H131   1.046       .  S
N128        H132   1.045       .  S
N130        H133   1.045       .  S
N130        H134   1.044       .  S
C139        C140   1.411       .  A
C139        C144   1.406       .  A
C140        C141   1.405       .  A
C140        N145   1.432       .  S
C141        C142   1.405       .  A
C141        H146   1.084       .  S
C142        C143   1.412       .  A
C142        C147   1.496       .  S
C143        C144   1.409       .  A
C143        N148   1.432       .  S
C144        H149   1.084       .  S
N145        H165   1.046       .  S
N145        H166   1.045       .  S
C147        C150   1.407       .  A
C147        C154   1.414       .  A
N148        H163   1.045       .  S
N148        H164   1.046       .  S
C150        C151   1.414       .  A
C150        H155   1.083       .  S
C151        C152   1.413       .  A
C151        N156   1.437       .  S
C152        C153   1.403       .  A
C153        C154   1.405       .  A
C153        H157   1.084       .  S
C154        N158   1.438       .  S
N156        H159   1.045       .  S
N156        H160   1.046       .  S
N158        H161   1.046       .  S
N158        H162   1.045       .  S
C167        C168   1.414       .  A
C167        C172   1.405       .  A
C168        C169   1.398       .  A
C168        N173   1.439       .  S
C169        C170   1.406       .  A
C169        H174   1.084       .  S
C170        C171   1.419       .  A
C170        C175   1.492       .  S
C171        C172   1.406       .  A
C171        N176   1.439       .  S
C172        H177   1.084       .  S
N173        H193   1.044       .  S
N173        H194   1.045       .  S
C175        C178   1.404       .  A
C175        C182   1.412       .  A
N176        H191   1.044       .  S
N176        H192   1.045       .  S
C178        C179   1.405       .  A
C178        H183   1.084       .  S
C179        C180   1.410       .  A
C179        N184   1.437       .  S
C180        C181   1.403       .  A
C181        C182   1.406       .  A
C181        H185   1.084       .  S
C182        N186   1.433       .  S
N184        H187   1.045       .  S
N184        H188   1.045       .  S
N186        H189   1.045       .  S
N186        H190   1.046       .  S
C195        C196   1.410       .  A
C195        C200   1.406       .  A
C196        C197   1.407       .  A
C196        N201   1.438       .  S
C197        C198   1.408       .  A
C197        H202   1.083       .  S
C198        C199   1.414       .  A
C198        C203   1.501       .  S
C199        C200   1.413       .  A
C199        N204   1.437       .  S
C200        H205   1.083       .  S
N201        H221   1.045       .  S
N201        H222   1.045       .  S
C203        C206   1.407       .  A
C203        C210   1.414       .  A
N204        H219   1.046       .  S
N204        H220   1.045       .  S
C206        C207   1.411       .  A
C206        H211   1.083       .  S
C207        C208   1.411       .  A
C207        N212   1.437       .  S
C208        C209   1.404       .  A
C209        C210   1.409       .  A
C209        H213   1.084       .  S
C210        N214   1.437       .  S
N212        H215   1.046       .  S
N212        H216   1.045       .  S
N214        H217   1.046       .  S
N214        H218   1.045       .  S
C223        C224   1.417       .  A
C223        C228   1.403       .  A
C224        C225   1.406       .  A
C224        N229   1.438       .  S
C225        C226   1.407       .  A
C225        H230   1.084       .  S
C226        C227   1.411       .  A
C226        C231   1.496       .  S
C227        C228   1.401       .  A
C227        N232   1.433       .  S
C228        H233   1.085       .  S
N229        H249   1.041       .  S
N229        H250   1.047       .  S
C231        C234   1.406       .  A
C231        C238   1.417       .  A
N232        H247   1.045       .  S
N232        H248   1.046       .  S
C234        C235   1.408       .  A
C234        H239   1.083       .  S
C235        C236   1.413       .  A
C235        N240   1.438       .  S
C236        C237   1.402       .  A
C237        C238   1.405       .  A
C237        H241   1.084       .  S
C238        N242   1.438       .  S
N240        H243   1.046       .  S
N240        H244   1.045       .  S
N242        H245   1.045       .  S
N242        H246   1.046       .  S
C251        C252   1.413       .  A
C251        C256   1.406       .  A
C252        C253   1.407       .  A
C252        N257   1.432       .  S
C253        C254   1.409       .  A
C253        H258   1.084       .  S
C254        C255   1.414       .  A
C254        C259   1.502       .  S
C255        C256   1.406       .  A
C255        N260   1.433       .  S
C256        H261   1.085       .  S
N257        H277   1.045       .  S
N257        H278   1.044       .  S
C259        C262   1.408       .  A
C259        C266   1.411       .  A
N260        H275   1.046       .  S
N260        H276   1.046       .  S
C262        C263   1.411       .  A
C262        H267   1.083       .  S
C263        C264   1.414       .  A
C263        N268   1.438       .  S
C264        C265   1.407       .  A
C265        C266   1.408       .  A
C265        H269   1.084       .  S
C266        N270   1.432       .  S
N268        H271   1.046       .  S
N268        H272   1.046       .  S
N270        H273   1.045       .  S
N270        H274   1.046       .  S
C279        C280   1.413       .  A
C279        C284   1.402       .  A
C280        C281   1.402       .  A
C280        N285   1.433       .  S
C281        C282   1.405       .  A
C281        H286   1.084       .  S
C282        C283   1.414       .  A
C282        C287   1.496       .  S
C283        C284   1.410       .  A
C283        N288   1.437       .  S
C284        H289   1.084       .  S
N285        H305   1.045       .  S
N285        H306   1.045       .  S
C287        C290   1.407       .  A
C287        C294   1.413       .  A
N288        H303   1.047       .  S
N288        H304   1.044       .  S
C290        C291   1.410       .  A
C290        H295   1.084       .  S
C291        C292   1.419       .  A
C291        N296   1.438       .  S
C292        C293   1.400       .  A
C293        C294   1.401       .  A
C293        H297   1.084       .  S
C294        N298   1.433       .  S
N296        H299   1.046       .  S
N296        H300   1.043       .  S
N298        H301   1.046       .  S
N298        H302   1.045       .  S
C307        C308   1.415       .  A
C307        C312   1.405       .  A
C308        C309   1.396       .  A
C308        N313   1.438       .  S
C309        C310   1.408       .  A
C309        H314   1.082       .  S
C310        C311   1.421       .  A
C310        C315   1.504       .  S
C311        C312   1.405       .  A
C311        N316   1.438       .  S
C312        H317   1.083       .  S
N313        H333   1.045       .  S
N313        H334   1.045       .  S
C315        C318   1.409       .  A
C315        C322   1.420       .  A
N316        H331   1.047       .  S
N316        H332   1.044       .  S
C318        C319   1.399       .  A
C318        H323   1.083       .  S
C319        C320   1.413       .  A
C319        N324   1.434       .  S
C320        C321   1.400       .  A
C321        C322   1.405       .  A
C321        H325   1.084       .  S
C322        N326   1.432       .  S
N324        H327   1.044       .  S
N324        H328   1.045       .  S
N326        H329   1.046       .  S
N326        H330   1.046       .  S
N335        C340   1.356       .  A
N335        C339   1.355   1_565  A
N335        H367   1.030       .  S
N336        C344   1.350       .  A
N337        C342   1.355       .  A
N337        C341   1.357   1_565  A
N337        H368   1.039       .  S
N338        C346   1.352       .  A
C339        C347   1.389       .  A
C339        C355   1.421       .  A
C340        C356   1.416       .  A
C340        C348   1.385       .  A
C341        C349   1.386       .  A
C341        C358   1.422       .  A
C342        C357   1.423       .  A
C342        C350   1.389       .  A
C343        C355   1.415       .  A
C343        C351   1.387       .  A
C344        C358   1.411       .  A
C344        C352   1.386       .  A
C345        C353   1.385       .  A
C345        C356   1.414       .  A
C346        C354   1.388       .  A
C346        C357   1.417       .  A
C347        C348   1.376   1_545  A
C347        H359   1.082       .  S
C348        H360   1.083       .  S
C349        C350   1.375   1_545  A
C349        H361   1.082       .  S
C350        H362   1.080       .  S
C351        H363   1.082       .  S
C352        H364   1.082       .  S
C353        H365   1.082       .  S
C354        H366   1.082       .  S
C355        C570   1.494       .  S
C356        C626   1.495       .  S
C357        C654   1.495       .  S
C358        C598   1.499       .  S
N369        C373   1.361       .  A
N369        C370   1.365       .  A
N369        C444   1.446       .  S
C370        C371   1.383       .  A
C370        C585   1.481       .  S
C371        C372   1.362       .  A
C371        H374   1.083       .  S
C372        C373   1.379       .  A
C372        H375   1.083       .  S
C373        C557   1.476       .  S
N376        C380   1.362       .  A
N376        C377   1.364       .  A
N376        C443   1.446       .  S
C377        C378   1.385       .  A
C377        C641   1.489       .  S
C378        C379   1.364       .  A
C378        H381   1.082       .  S
C379        C380   1.379       .  A
C379        H382   1.083       .  S
C380        C613   1.477       .  S
N383        H415   1.036   1_554  S
N384        C391   1.355       .  A
N384        C392   1.352       .  A
N385        C390   1.361   1_455  A
N385        C389   1.356       .  A
N385        H416   1.037       .  S
N386        C393   1.352       .  A
N386        C394   1.353       .  A
C387        C395   1.386       .  A
C388        C404   1.425       .  A
C388        C396   1.389       .  A
C389        C397   1.388       .  A
C389        C406   1.426       .  A
C390        C405   1.426       .  A
C390        C398   1.387       .  A
C391        C403   1.420   1_556  A
C391        C399   1.386       .  A
C392        C406   1.421       .  A
C392        C400   1.388       .  A
C393        C401   1.387       .  A
C394        C402   1.386       .  A
C394        C405   1.419       .  A
C395        C396   1.375   1_455  A
C395        H407   1.082       .  S
C396        H408   1.082       .  S
C397        C398   1.373   1_455  A
C397        H409   1.082       .  S
C398        H410   1.082       .  S
C399        C400   1.374       .  A
C399        H411   1.082       .  S
C400        H412   1.082       .  S
C401        C402   1.373       .  A
C401        H413   1.082       .  S
C402        H414   1.082       .  S
C404        C501   1.493       .  S
C405        C529   1.503       .  S
C406        C486   1.496       .  S
N417        C421   1.362       .  A
N417        C418   1.364       .  A
N417        C441   1.445       .  S
C418        C419   1.383       .  A
C418        C458   1.493       .  S
C419        C420   1.371       .  A
C419        H422   1.082       .  S
C420        C421   1.382       .  A
C420        H423   1.082       .  S
C421        C473   1.490       .  S
N424        C428   1.358       .  A
N424        C425   1.361       .  A
N424        C442   1.441       .  S
C425        C426   1.384       .  A
C425        C542   1.490       .  S
C426        C427   1.373       .  A
C426        H429   1.082       .  S
C427        C428   1.379       .  A
C427        H430   1.082       .  S
C428        C514   1.480       .  S
O431        V439   1.903       .  S
O431        C441   1.266       .  A
O432        V439   1.905       .  S
O432        C442   1.265       .  A
O433        V439   1.901       .  S
O433        C443   1.266       .  A
O434        V439   1.909       .  S
O434        C444   1.265       .  A
O435        V440   1.901       .  S
O435        C444   1.266       .  A
O436        V440   1.908       .  S
O436        C443   1.265       .  A
O437        V440   1.901       .  S
O437        C442   1.266       .  A
O438        V440   1.910       .  S
O438        C441   1.266       .  A
V439        V440   2.085       .  T
C445        C450   1.403       .  A
C446        N451   1.438       .  S
C447        C448   1.406       .  A
C447        H452   1.083       .  S
C448        C449   1.412       .  A
C448        C453   1.502       .  S
C449        C450   1.406       .  A
C449        N454   1.432       .  S
C450        H455   1.084       .  S
N451        H471   1.044       .  S
N451        H472   1.045       .  S
C453        C456   1.407       .  A
C453        C460   1.420       .  A
N454        H469   1.045       .  S
N454        H470   1.046       .  S
C456        C457   1.414       .  A
C456        H461   1.084       .  S
C457        C458   1.414       .  A
C457        N462   1.437       .  S
C458        C459   1.406       .  A
C459        C460   1.407       .  A
C459        H463   1.084       .  S
C460        N464   1.439       .  S
N462        H465   1.045       .  S
N462        H466   1.045       .  S
N464        H467   1.046       .  S
N464        H468   1.043       .  S
C473        C474   1.411       .  A
C473        C478   1.406       .  A
C474        C475   1.404       .  A
C474        N479   1.432       .  S
C475        C476   1.404       .  A
C475        H480   1.084       .  S
C476        C477   1.411       .  A
C476        C481   1.492       .  S
C477        C478   1.408       .  A
C477        N482   1.432       .  S
C478        H483   1.084       .  S
N479        H499   1.045       .  S
N479        H500   1.045       .  S
C481        C484   1.406       .  A
C481        C488   1.414       .  A
N482        H497   1.045       .  S
N482        H498   1.046       .  S
C484        C485   1.411       .  A
C484        H489   1.083       .  S
C485        C486   1.413       .  A
C485        N490   1.437       .  S
C486        C487   1.402       .  A
C487        C488   1.404       .  A
C487        H491   1.084       .  S
C488        N492   1.438       .  S
N490        H493   1.046       .  S
N490        H494   1.045       .  S
N492        H495   1.045       .  S
N492        H496   1.046       .  S
C501        C502   1.416       .  A
C501        C506   1.405       .  A
C502        C503   1.400       .  A
C502        N507   1.439       .  S
C503        C504   1.405       .  A
C503        H508   1.084       .  S
C504        C505   1.412       .  A
C504        C509   1.488       .  S
C505        C506   1.408       .  A
C505        N510   1.438       .  S
C506        H511   1.084       .  S
N507        H527   1.042       .  S
N507        H528   1.046       .  S
C509        C512   1.406       .  A
C509        C516   1.410       .  A
N510        H525   1.047       .  S
N510        H526   1.041       .  S
C512        C513   1.409       .  A
C512        H517   1.084       .  S
C513        C514   1.409       .  A
C513        N518   1.437       .  S
C514        C515   1.401       .  A
C515        C516   1.403       .  A
C515        H519   1.084       .  S
C516        N520   1.433       .  S
N518        H521   1.046       .  S
N518        H522   1.045       .  S
N520        H523   1.045       .  S
N520        H524   1.046       .  S
C529        C530   1.410       .  A
C529        C534   1.405       .  A
C530        C531   1.410       .  A
C530        N535   1.437       .  S
C531        C532   1.408       .  A
C531        H536   1.083       .  S
C532        C533   1.415       .  A
C532        C537   1.503       .  S
C533        C534   1.413       .  A
C533        N538   1.437       .  S
C534        H539   1.083       .  S
N535        H555   1.046       .  S
N535        H556   1.045       .  S
C537        C540   1.407       .  A
C537        C544   1.415       .  A
N538        H553   1.044       .  S
N538        H554   1.046       .  S
C540        C541   1.411       .  A
C540        H545   1.083       .  S
C541        C542   1.413       .  A
C541        N546   1.438       .  S
C542        C543   1.405       .  A
C543        C544   1.410       .  A
C543        H547   1.084       .  S
C544        N548   1.437       .  S
N546        H549   1.046       .  S
N546        H550   1.044       .  S
N548        H551   1.045       .  S
N548        H552   1.046       .  S
C557        C558   1.417       .  A
C557        C562   1.401       .  A
C558        C559   1.404       .  A
C558        N563   1.438       .  S
C559        C560   1.407       .  A
C559        H564   1.084       .  S
C560        C561   1.411       .  A
C560        C565   1.493       .  S
C561        C562   1.398       .  A
C561        N566   1.433       .  S
C562        H567   1.085       .  S
N563        H583   1.041       .  S
N563        H584   1.046       .  S
C565        C568   1.406       .  A
C565        C572   1.417       .  A
N566        H581   1.046       .  S
N566        H582   1.045       .  S
C568        C569   1.407       .  A
C568        H573   1.083       .  S
C569        C570   1.412       .  A
C569        N574   1.438       .  S
C570        C571   1.401       .  A
C571        C572   1.404       .  A
C571        H575   1.084       .  S
C572        N576   1.439       .  S
N574        H577   1.046       .  S
N574        H578   1.045       .  S
N576        H579   1.046       .  S
N576        H580   1.045       .  S
C585        C586   1.416       .  A
C585        C590   1.406       .  A
C586        C587   1.404       .  A
C586        N591   1.436       .  S
C587        C588   1.407       .  A
C587        H592   1.084       .  S
C588        C589   1.412       .  A
C588        C593   1.496       .  S
C589        C590   1.403       .  A
C589        N594   1.433       .  S
C590        H595   1.085       .  S
N591        H611   1.041       .  S
N591        H612   1.045       .  S
C593        C596   1.409       .  A
C593        C600   1.410       .  A
N594        H609   1.046       .  S
N594        H610   1.045       .  S
C596        C597   1.406       .  A
C596        H601   1.083       .  S
C597        C598   1.410       .  A
C597        N602   1.438       .  S
C598        C599   1.407       .  A
C599        C600   1.405       .  A
C599        H603   1.084       .  S
C600        N604   1.432       .  S
N602        H605   1.043       .  S
N602        H606   1.048       .  S
N604        H607   1.046       .  S
N604        H608   1.045       .  S
C613        C614   1.414       .  A
C613        C618   1.402       .  A
C614        C615   1.402       .  A
C614        N619   1.433       .  S
C615        C616   1.403       .  A
C615        H620   1.084       .  S
C616        C617   1.413       .  A
C616        C621   1.492       .  S
C617        C618   1.409       .  A
C617        N622   1.437       .  S
C618        H623   1.084       .  S
N619        H639   1.045       .  S
N619        H640   1.045       .  S
C621        C624   1.406       .  A
C621        C628   1.412       .  A
N622        H637   1.045       .  S
N622        H638   1.045       .  S
C624        C625   1.407       .  A
C624        H629   1.084       .  S
C625        C626   1.415       .  A
C625        N630   1.432       .  S
C626        C627   1.401       .  A
C627        C628   1.402       .  A
C627        H631   1.084       .  S
C628        N632   1.433       .  S
N630        H633   1.045       .  S
N630        H634   1.045       .  S
N632        H635   1.045       .  S
N632        H636   1.046       .  S
C641        C642   1.415       .  A
C641        C646   1.406       .  A
C642        C643   1.396       .  A
C642        N647   1.438       .  S
C643        C644   1.410       .  A
C643        H648   1.082       .  S
C644        C645   1.421       .  A
C644        C649   1.506       .  S
C645        C646   1.404       .  A
C645        N650   1.438       .  S
C646        H651   1.082       .  S
N647        H667   1.044       .  S
N647        H668   1.046       .  S
C649        C652   1.410       .  A
C649        C656   1.419       .  A
N650        H665   1.046       .  S
N650        H666   1.045       .  S
C652        C653   1.401       .  A
C652        H657   1.083       .  S
C653        C654   1.418       .  A
C653        N658   1.439       .  S
C654        C655   1.401       .  A
C655        C656   1.403       .  A
C655        H659   1.084       .  S
C656        N660   1.432       .  S
N658        H661   1.047       .  S
N658        H662   1.041       .  S
N660        H663   1.046       .  S
N660        H664   1.046       .  S
