geometry optimzed in LAMMPS
_audit_creation_date              2020-11-30 
_audit_creation_method            'lammps2cif' 
_symmetry_space_group_name_H-M    'P1' 
_symmetry_Int_Tables_number       1 
_symmetry_cell_setting            triclinic 
loop_ 
_symmetry_equiv_pos_as_xyz 
  x,y,z 
_cell_length_a                    38.11208375 
_cell_length_b                    38.16885292414562 
_cell_length_c                    74.82411737928201 
_cell_angle_alpha                 89.03641177592986 
_cell_angle_beta                  90.36149307484067 
_cell_angle_gamma                 88.29129731339329 
loop_ 
_atom_site_label 
_atom_site_type_symbol 
_atom_site_fract_x 
_atom_site_fract_y 
_atom_site_fract_z 
_atom_site_charge 
O1          O  0.18523012  0.69290790  0.80700040    -0.56900
C2          C  0.16801683  0.62611514  0.83849097     0.75700
O3          O  0.23272090  0.72123629  0.86130708    -0.58000
C4          C  0.19382620  0.72383765  0.80307656     0.75700
C5          C  0.11603530  0.72726709  0.84954052     0.78100
Cd6        Cd  0.18552614  0.69847659  0.83976398     1.37500
O7          O  0.18416258  0.64125032  0.82592929    -0.56900
O8          O  0.13002730  0.70091423  0.85756016    -0.55700
C9          C  0.25237257  0.69387888  0.86020511     0.78100
O10         O  0.13607303  0.74327553  0.83897036    -0.58100
O11         O  0.15878007  0.64520240  0.85142350    -0.56500
O12         O  0.19985792  0.74325824  0.81627344    -0.56500
O13         O  0.24141605  0.67090122  0.84986496    -0.55700
O14         O  0.27877448  0.77327671  0.66976340    -0.56900
C15         C  0.35086845  0.79237821  0.63359706     0.75700
O16         O  0.25566391  0.75392559  0.61150334    -0.58000
C17         C  0.24637151  0.77666390  0.67307919     0.75700
C18         C  0.26048180  0.86255002  0.62920129     0.78100
Cd19       Cd  0.27598480  0.78898933  0.63788973     1.37500
O20         O  0.33660768  0.79143492  0.64882783    -0.56900
O21         O  0.28276066  0.85162314  0.64070564    -0.55700
C22         C  0.26733571  0.72473062  0.61784388     0.78100
O23         O  0.24277214  0.83908326  0.62174000    -0.58100
O24         O  0.33025827  0.79165788  0.62030273    -0.56500
O25         O  0.22666237  0.78581510  0.65997583    -0.56500
O26         O  0.27991279  0.72544430  0.63348932    -0.55700
C27         C  0.49506503  0.62565800  0.91721559    -0.01600
C28         C  0.35334283  0.49732589  0.55817240    -0.01600
O29         O  0.20042480  0.29659406  0.80087161    -0.56900
C30         C  0.18266087  0.36328615  0.83562964     0.75700
O31         O  0.14687888  0.24836988  0.84682512    -0.58000
C32         C  0.20323195  0.26433574  0.79729268     0.75700
C33         C  0.25690985  0.28226240  0.85390750     0.78100
Cd34       Cd  0.19171280  0.28892327  0.83303738     1.37500
O35         O  0.19853673  0.34951327  0.82259039    -0.56900
O36         O  0.25612201  0.27718663  0.83727944    -0.55700
C37         C  0.12061749  0.26446867  0.83956298     0.78100
O38         O  0.22729329  0.28578964  0.86137336    -0.58100
O39         O  0.17134048  0.34275153  0.84754533    -0.56500
O40         O  0.20077244  0.24293767  0.81036862    -0.56500
O41         O  0.12781640  0.29056222  0.82980983    -0.55700
O42         O  0.34927739  0.19490547  0.64830753    -0.56900
C43         C  0.25865415  0.20314002  0.66983184     0.75700
O44         O  0.28602429  0.23169533  0.60752408    -0.58000
C45         C  0.36533598  0.18454106  0.63454654     0.75700
C46         C  0.26500683  0.12499039  0.62750187     0.78100
Cd47       Cd  0.29028552  0.19407945  0.63534104     1.37500
O48         O  0.29134076  0.19802491  0.66776883    -0.56900
O49         O  0.28559779  0.13127358  0.64022927    -0.55700
C50         C  0.28533474  0.26083597  0.61541139     0.78100
O51         O  0.25497605  0.15110396  0.61781983    -0.58100
O52         O  0.23997818  0.20496907  0.65570549    -0.56500
O53         O  0.34653364  0.17802208  0.62110214    -0.56500
O54         O  0.28333456  0.25916727  0.63225910    -0.55700
C55         C  0.49013872  0.35026298  0.91368527    -0.01600
O56         O  0.78244597  0.63404148  0.82026271    -0.56900
C57         C  0.77288772  0.72360857  0.79539517     0.75700
O58         O  0.74393069  0.70659525  0.85767469    -0.58000
C59         C  0.78662731  0.61929303  0.83543278     0.75700
C60         C  0.85323556  0.71498709  0.84029843     0.78100
Cd61       Cd  0.78225253  0.69461537  0.83102506     1.37500
O62         O  0.78024515  0.69154432  0.79853203    -0.56900
O63         O  0.84600039  0.69108125  0.82955866    -0.55700
C64         C  0.71519852  0.70267167  0.84937725     0.78100
O65         O  0.82701642  0.73154904  0.84682828    -0.58100
O66         O  0.76934295  0.74306043  0.80889897    -0.56500
O67         O  0.78896963  0.63958605  0.84854141    -0.56500
O68         O  0.71793155  0.69910057  0.83268269    -0.55700
O69         O  0.63082391  0.79578786  0.64251844    -0.56900
C70         C  0.71885866  0.77497427  0.66538496     0.75700
O71         O  0.69747805  0.74964124  0.60278043    -0.58000
C72         C  0.61498788  0.79623055  0.62758746     0.75700
C73         C  0.71049528  0.85874840  0.62163510     0.78100
Cd74       Cd  0.68959947  0.78754623  0.63011607     1.37500
O75         O  0.68650401  0.77278262  0.66186548    -0.56900
O76         O  0.68339742  0.85104201  0.63030033    -0.55700
C77         C  0.69212428  0.72112692  0.61118911     0.78100
O78         O  0.72919880  0.83288010  0.61625156    -0.58100
O79         O  0.73868103  0.78268611  0.65242418    -0.56500
O80         O  0.63377937  0.79336216  0.61378691    -0.56500
O81         O  0.69087182  0.72339487  0.62799564    -0.55700
C82         C  0.62866839  0.48679937  0.55179258    -0.01600
O83         O  0.77659537  0.29091348  0.80614500    -0.56900
C84         C  0.78813793  0.35497100  0.84226908     0.75700
O85         O  0.74930132  0.25825389  0.86426802    -0.58000
C86         C  0.77691678  0.25918326  0.80158654     0.75700
C87         C  0.85769354  0.26077413  0.84802764     0.78100
Cd88       Cd  0.78502957  0.28048863  0.83830772     1.37500
O89         O  0.79136961  0.34042617  0.82726795    -0.56900
O90         O  0.84684307  0.29141987  0.84399534    -0.55700
C91         C  0.71968779  0.26660653  0.85732229     0.78100
O92         O  0.83432026  0.23774057  0.84827452    -0.58100
O93         O  0.78235516  0.33508168  0.85558915    -0.56500
O94         O  0.78058681  0.23658691  0.81412134    -0.56500
O95         O  0.72073874  0.27904828  0.84159075    -0.55700
O96         O  0.69878843  0.20532488  0.66777839    -0.56900
C97         C  0.62993783  0.17914184  0.63399650     0.75700
O98         O  0.68827290  0.25191205  0.63006321    -0.58000
C99         C  0.73105540  0.20697072  0.67143334     0.75700
C100        C  0.72858360  0.11942546  0.62867643     0.78100
Cd101      Cd  0.70377922  0.19050296  0.63649292     1.37500
O102        O  0.64514449  0.18476934  0.64867876    -0.56900
O103        O  0.70993660  0.12761031  0.64194656    -0.55700
C104        C  0.70624042  0.25609671  0.61613942     0.78100
O105        O  0.73752350  0.14478578  0.61865754    -0.58100
O106        O  0.64922536  0.17805811  0.62028961    -0.56500
O107        O  0.75212917  0.20062795  0.65873848    -0.56500
O108        O  0.72501537  0.22984497  0.61142653    -0.55700
O109        O  0.65514066  0.16507226  0.32212648    -0.56900
C110        C  0.73769525  0.20253884  0.29903920     0.75700
O111        O  0.73304816  0.22872857  0.35473214    -0.58000
C112        C  0.63915450  0.16774693  0.33684116     0.75700
C113        C  0.74062930  0.11311310  0.34480922     0.78100
Cd114      Cd  0.71215292  0.18192631  0.33377685     1.37500
O115        O  0.70660762  0.19324681  0.30179469    -0.56900
O116        O  0.73063140  0.12081155  0.32907395    -0.55700
C117        C  0.70760093  0.24994697  0.35086569     0.78100
O118        O  0.74036155  0.13823921  0.35571692    -0.58100
O119        O  0.75827980  0.20131948  0.31245880    -0.56500
O120        O  0.65769087  0.17497464  0.35028785    -0.56500
O121        O  0.68654579  0.23916935  0.33927415    -0.55700
O122        O  0.80849829  0.36662066  0.14568077    -0.56900
C123        C  0.79025532  0.27886836  0.17168697     0.75700
O124        O  0.76476191  0.29608620  0.10878116    -0.58000
C125        C  0.81108212  0.37934863  0.13002310     0.75700
C126        C  0.87592196  0.28093462  0.13194733     0.78100
Cd127      Cd  0.80320693  0.30592984  0.13613777     1.37500
O128        O  0.79059658  0.31133955  0.16793891    -0.56900
O129        O  0.86619627  0.30631203  0.14151275    -0.55700
C130        C  0.73629290  0.30503129  0.11648022     0.78100
O131        O  0.85166497  0.26612624  0.12335344    -0.58100
O132        O  0.79440151  0.25833094  0.15863173    -0.56500
O133        O  0.81085963  0.35802280  0.11727816    -0.56500
O134        O  0.73883390  0.30919616  0.13315929    -0.55700
C135        C  0.49806544  0.37191724  0.05330640    -0.01600
O136        O  0.31112065  0.19553387  0.31086948    -0.56900
C137        C  0.37521235  0.17162918  0.34460983     0.75700
O138        O  0.28494520  0.21621633  0.36999197    -0.58000
C139        C  0.27954706  0.19637260  0.30560963     0.75700
C140        C  0.27586789  0.11005739  0.35074772     0.78100
Cd141      Cd  0.30050570  0.18076363  0.34236001     1.37500
O142        O  0.35826895  0.16477442  0.33057322    -0.56900
O143        O  0.30743711  0.11716619  0.34775868    -0.55700
C144        C  0.29064706  0.24581606  0.36274635     0.78100
O145        O  0.25465300  0.13634156  0.35094813    -0.58100
O146        O  0.35750293  0.18206681  0.35786631    -0.56500
O147        O  0.25691748  0.19020934  0.31752329    -0.56500
O148        O  0.29836772  0.24476384  0.34637214    -0.55700
O149        O  0.22131250  0.30340314  0.17395758    -0.56900
C150        C  0.20922543  0.37644002  0.13885617     0.75700
O151        O  0.25067374  0.28049634  0.11527703    -0.58000
C152        C  0.22821811  0.27126799  0.17690959     0.75700
C153        C  0.14085676  0.28427476  0.13407232     0.78100
Cd154      Cd  0.21416546  0.30125666  0.14162437     1.37500
O155        O  0.21657899  0.36048722  0.15341045    -0.56900
O156        O  0.15054528  0.30691499  0.14501373    -0.55700
C157        C  0.27908151  0.29333170  0.12078743     0.78100
O158        O  0.16554065  0.26737428  0.12637519    -0.58100
O159        O  0.20375592  0.35747721  0.12544622    -0.56500
O160        O  0.22827326  0.25187332  0.16329734    -0.56500
O161        O  0.27734651  0.30755822  0.13588235    -0.55700
C162        C  0.63478835  0.48017965  0.41430037    -0.01600
O163        O  0.64369243  0.78860318  0.32407403    -0.56900
C164        C  0.72748019  0.77403754  0.30124609     0.75700
O165        O  0.74504251  0.82822490  0.34617591    -0.58000
C166        C  0.62698623  0.78746543  0.33864155     0.75700
C167        C  0.70896576  0.71435251  0.35664384     0.78100
Cd168      Cd  0.70182784  0.78168997  0.33758529     1.37500
O169        O  0.69530109  0.77505576  0.30525017    -0.56900
O170        O  0.69942393  0.71799615  0.34054100    -0.55700
C171        C  0.72157688  0.85238631  0.34733611     0.78100
O172        O  0.71863327  0.74215027  0.36408385    -0.58100
O173        O  0.74863886  0.77641354  0.31429572    -0.56500
O174        O  0.64505703  0.78494257  0.35289494    -0.56500
O175        O  0.69039734  0.84268485  0.34560181    -0.55700
O176        O  0.79652681  0.70343765  0.16462764    -0.56900
C177        C  0.79884802  0.64204007  0.12790302     0.75700
O178        O  0.74595201  0.73776800  0.10802301    -0.58000
C179        C  0.78203542  0.73134417  0.17025686     0.75700
C180        C  0.85362149  0.74627791  0.12104326     0.78100
Cd181      Cd  0.78786423  0.71592029  0.13243498     1.37500
O182        O  0.79726552  0.65578633  0.14316589    -0.56900
O183        O  0.82984574  0.76546095  0.12800059    -0.55700
C184        C  0.71936278  0.72347827  0.11476258     0.78100
O185        O  0.84571171  0.71489857  0.11847544    -0.58100
O186        O  0.79631425  0.66269976  0.11451940    -0.56500
O187        O  0.77082976  0.75291138  0.15830223    -0.56500
O188        O  0.72431238  0.70838545  0.12973268    -0.55700
C189        C  0.48938186  0.64810989  0.05626340    -0.01600
O190        O  0.18698053  0.71583015  0.16260311    -0.56900
C191        C  0.19452394  0.64162415  0.13215934     0.75700
O192        O  0.13909296  0.75918298  0.12016880    -0.58000
C193        C  0.19702551  0.74668209  0.16511040     0.75700
C194        C  0.25022074  0.72442636  0.10701635     0.78100
Cd195      Cd  0.18896869  0.71701936  0.12990403     1.37500
O196        O  0.20313727  0.66044272  0.14516212    -0.56900
O197        O  0.25106843  0.73039542  0.12356496    -0.55700
C198        C  0.11563329  0.73643435  0.12179146     0.78100
O199        O  0.22015327  0.71917810  0.10045746    -0.58100
O200        O  0.18332923  0.65769929  0.11825405    -0.56500
O201        O  0.20357966  0.76468113  0.15118365    -0.56500
O202        O  0.12682387  0.70581036  0.12565140    -0.55700
O203        O  0.29000380  0.77092871  0.29792374    -0.56900
C204        C  0.36261186  0.78532211  0.33364402     0.75700
O205        O  0.24840824  0.82392537  0.34554758    -0.58000
C206        C  0.25729043  0.77383556  0.29503789     0.75700
C207        C  0.28867970  0.71008466  0.34852657     0.78100
Cd208      Cd  0.28831877  0.77886323  0.33031338     1.37500
O209        O  0.34771459  0.78452243  0.31848328    -0.56900
O210        O  0.29347146  0.71419503  0.33193536    -0.55700
C211        C  0.26500688  0.84984621  0.33933944     0.78100
O212        O  0.27889461  0.73762805  0.35665919    -0.58100
O213        O  0.34296966  0.78401124  0.34718853    -0.56500
O214        O  0.23799155  0.77809713  0.30863196    -0.56500
O215        O  0.29185285  0.84229172  0.33020467    -0.55700
C216        C  0.36189661  0.47920337  0.41772568    -0.01600
C217        C  0.28794447  0.63388948  0.38312272    -0.04500
C218        C  0.31413194  0.61068536  0.37644804     0.09600
C219        C  0.33091158  0.61952273  0.36031402    -0.01900
C220        C  0.32262161  0.65165292  0.35126917    -0.00200
C221        C  0.29619707  0.67516633  0.35786767    -0.03800
C222        C  0.27873818  0.66563942  0.37383593     0.03200
C223        C  0.32539435  0.57758836  0.38672108     0.10100
C224        C  0.35727161  0.59550570  0.35313393     0.36000
C225        C  0.25083153  0.68816420  0.38070696     0.39400
C226        C  0.30961448  0.54561846  0.38349754    -0.04200
C227        C  0.32238078  0.51379953  0.39183588     0.03000
C228        C  0.34834052  0.51355792  0.40610907    -0.03800
C229        C  0.36397607  0.54744332  0.40886117     0.00000
C230        C  0.35363731  0.57791536  0.39872866    -0.02500
C231        C  0.28075392  0.54544098  0.37069204     0.36700
C232        C  0.38906248  0.55365313  0.42302022     0.40300
C233        C  0.31031929  0.48255581  0.38347373     0.39500
C234        C  0.37219025  0.61041551  0.40073415     0.36400
C235        C  0.27051303  0.62527490  0.39970059     0.37100
C236        C  0.34304908  0.66105303  0.33569388     0.40300
N237        N  0.29991439  0.45909483  0.37565380    -0.37800
N238        N  0.25775744  0.54545207  0.36051804    -0.39300
N239        N  0.40829621  0.56187977  0.43411860    -0.37100
N240        N  0.38715251  0.63617527  0.40215816    -0.39500
N241        N  0.37816062  0.57620847  0.34741497    -0.39300
N242        N  0.35959871  0.66853163  0.32336170    -0.36900
N243        N  0.22849400  0.70604939  0.38620955    -0.37900
N244        N  0.25629227  0.61890397  0.41292435    -0.39600
C245        C  0.23859011  0.78245405  0.20734705    -0.04500
C246        C  0.21386201  0.77251583  0.22032525     0.09600
C247        C  0.18142810  0.75945412  0.21476015    -0.01900
C248        C  0.17496595  0.75351710  0.19647964    -0.00200
C249        C  0.20110088  0.76013332  0.18360601    -0.03800
C250        C  0.23220638  0.77645662  0.18901161     0.03200
C251        C  0.22329989  0.77258582  0.23984271     0.11700
C252        C  0.15512550  0.75110046  0.22795354     0.36000
C253        C  0.25837596  0.78567533  0.17589939     0.39400
C254        C  0.21249980  0.80053863  0.25084471    -0.04200
C255        C  0.22179815  0.80013630  0.26920083     0.03000
C256        C  0.24297555  0.77228332  0.27650447    -0.03800
C257        C  0.25286398  0.74390324  0.26555365     0.00000
C258        C  0.24278387  0.74390862  0.24737987    -0.02500
C259        C  0.19233103  0.82993511  0.24315899     0.36700
C260        C  0.27268253  0.71413479  0.27314371     0.40300
C261        C  0.21013690  0.82874734  0.28042315     0.39500
C262        C  0.25232124  0.71423090  0.23637216     0.36400
C263        C  0.27108525  0.79785373  0.21299760     0.37100
C264        C  0.14111220  0.74103983  0.19085829     0.40300
N265        N  0.20040474  0.85148190  0.28934283    -0.37800
N266        N  0.17631127  0.85341238  0.23698020    -0.39300
N267        N  0.28836397  0.69039428  0.27928006    -0.37100
N268        N  0.25976017  0.69054010  0.22756870    -0.39500
N269        N  0.13413997  0.74452833  0.23850354    -0.39300
N270        N  0.11403678  0.73138905  0.18629930    -0.36900
N271        N  0.27924614  0.79326715  0.16546831    -0.37900
N272        N  0.29695241  0.81017951  0.21757599    -0.39600
C273        C  0.34431120  0.73764479  0.09152220    -0.04500
C274        C  0.35114261  0.70648284  0.08205123     0.09600
C275        C  0.32312125  0.68412203  0.07849753    -0.01900
C276        C  0.28952997  0.69101363  0.08581281    -0.00200
C277        C  0.28330503  0.72092381  0.09643121    -0.03800
C278        C  0.31053841  0.74491363  0.09859492     0.03200
C279        C  0.38781809  0.69676557  0.07594525     0.10100
C280        C  0.32890731  0.65370371  0.06741092     0.36000
C281        C  0.30355257  0.77749672  0.10778525     0.39400
C282        C  0.41325873  0.68339527  0.08811689    -0.04200
C283        C  0.44608856  0.66955020  0.08205666     0.03000
C284        C  0.45440749  0.66850698  0.06327523    -0.03800
C285        C  0.43075719  0.68984704  0.05194961     0.00000
C286        C  0.39720446  0.70118453  0.05802378    -0.02500
C287        C  0.40480195  0.68234804  0.10702560     0.36700
C288        C  0.44093989  0.70512023  0.03489063     0.40300
C289        C  0.46948929  0.65470537  0.09570032     0.39500
C290        C  0.37243541  0.71914808  0.04588909     0.36400
C291        C  0.37213165  0.76223527  0.09395071     0.37100
C292        C  0.26204224  0.66604560  0.08321861     0.40300
N293        N  0.48627070  0.64381956  0.10759968    -0.37800
N294        N  0.39807035  0.68173229  0.12208549    -0.39300
N295        N  0.44818562  0.71828913  0.02140593    -0.37100
N296        N  0.35271615  0.73353194  0.03627249    -0.39500
N297        N  0.33319616  0.62966553  0.05837171    -0.39300
N298        N  0.24022486  0.64601701  0.08116090    -0.36900
N299        N  0.29780059  0.80365040  0.11496176    -0.37900
N300        N  0.39438697  0.78183219  0.09585542    -0.39600
C301        C  0.02655927  0.77738960  0.10648863    -0.04500
C302        C  0.00305094  0.75804125  0.11696830     0.09600
C303        C  0.01643021  0.73223860  0.12908764    -0.01900
C304        C  0.05293448  0.72566741  0.13075224    -0.00200
C305        C  0.07688746  0.74457300  0.12005928    -0.03800
C306        C  0.06329647  0.77063404  0.10793766     0.03200
C307        C  0.96392708  0.76338813  0.11509077     0.10100
C308        C  0.99233619  0.71209155  0.13982702     0.36000
C309        C  0.08680414  0.78963389  0.09641156     0.39400
C310        C  0.94557546  0.74536899  0.10183881    -0.04200
C311        C  0.90867949  0.74330058  0.10261961     0.03000
C312        C  0.88985491  0.75822111  0.11703152    -0.03800
C313        C  0.90789368  0.77961273  0.12912779     0.00000
C314        C  0.94481101  0.78220024  0.12809308    -0.02500
C315        C  0.96491048  0.72717549  0.08798707     0.36700
C316        C  0.88911522  0.79705578  0.14340894     0.40300
C317        C  0.89011535  0.72531770  0.08866604     0.39500
C318        C  0.96351985  0.80266588  0.14100992     0.36400
C319        C  0.01276955  0.80413158  0.09415035     0.37100
C320        C  0.06552455  0.69974256  0.14389630     0.40300
N321        N  0.87523993  0.71117047  0.07749208    -0.37800
N322        N  0.98035822  0.71259988  0.07695865    -0.39300
N323        N  0.87425689  0.81109178  0.15481650    -0.37100
N324        N  0.97854410  0.81899547  0.15128448    -0.39500
N325        N  0.97305359  0.69611368  0.14836138    -0.39300
N326        N  0.07542169  0.67898132  0.15435210    -0.36900
N327        N  0.10545405  0.80478016  0.08712569    -0.37900
N328        N  0.00162841  0.82547368  0.08432819    -0.39600
C329        C  0.57834792  0.65577230  0.08436068    -0.04500
C330        C  0.58464755  0.69164744  0.08303077     0.09600
C331        C  0.55781525  0.71434609  0.07642276    -0.01900
C332        C  0.52661417  0.70092314  0.06891392    -0.00200
C333        C  0.52163543  0.66362131  0.06758177    -0.03800
C334        C  0.54624889  0.64229373  0.07830364     0.03200
C335        C  0.61855671  0.70543781  0.09020160     0.10100
C336        C  0.56328227  0.75185741  0.07651714     0.36000
C337        C  0.53826587  0.60806008  0.08574043     0.39400
C338        C  0.64944613  0.70387831  0.07984326    -0.04200
C339        C  0.68214407  0.71264661  0.08739088     0.03000
C340        C  0.68442667  0.72228146  0.10554728    -0.03800
C341        C  0.65315430  0.72550108  0.11559577     0.00000
C342        C  0.62052122  0.71687087  0.10801391    -0.02500
C343        C  0.64808443  0.69095178  0.06175065     0.36700
C344        C  0.65454372  0.73745881  0.13388156     0.40300
C345        C  0.71370204  0.70935668  0.07673131     0.39500
C346        C  0.58916078  0.71765397  0.11889750     0.36400
C347        C  0.60476937  0.63267817  0.09287801     0.37100
C348        C  0.50115275  0.72687117  0.06217968     0.40300
N349        N  0.73880888  0.70671122  0.06817622    -0.37800
N350        N  0.64763525  0.68023481  0.04737796    -0.39300
N351        N  0.65572987  0.74705539  0.14845702    -0.37100
N352        N  0.56414506  0.71796650  0.12758575    -0.39500
N353        N  0.56767684  0.78172598  0.07655176    -0.39300
N354        N  0.48232710  0.74966421  0.05758142    -0.36900
N355        N  0.53283662  0.58101043  0.09222284    -0.37900
N356        N  0.62587391  0.61444746  0.09967329    -0.39600
C357        C  0.53275808  0.76727804  0.32700480    -0.04500
C358        C  0.51404929  0.78927034  0.33876668     0.09600
C359        C  0.53227452  0.81057440  0.35066822    -0.01900
C360        C  0.56929382  0.81010047  0.35071005    -0.00200
C361        C  0.58812630  0.78812559  0.33886794    -0.03800
C362        C  0.56967647  0.76639913  0.32716533     0.03200
C363        C  0.47495170  0.78994726  0.33839322     0.10100
C364        C  0.51280851  0.83320934  0.36269878     0.36000
C365        C  0.58860426  0.74202580  0.31576760     0.39400
C366        C  0.45652030  0.76612677  0.34912853    -0.04200
C367        C  0.41971373  0.76474461  0.34768693     0.03000
C368        C  0.40120659  0.78733281  0.33547956    -0.03800
C369        C  0.41980123  0.81140257  0.32485787     0.00000
C370        C  0.45657599  0.81277934  0.32639402    -0.02500
C371        C  0.47564809  0.74250732  0.36135461     0.36700
C372        C  0.40115491  0.83506675  0.31246769     0.40300
C373        C  0.40122925  0.73873836  0.35807913     0.39500
C374        C  0.47571621  0.83741784  0.31549165     0.36400
C375        C  0.51385060  0.74562332  0.31467399     0.37100
C376        C  0.58786635  0.83303578  0.36253156     0.40300
N377        N  0.38656848  0.71788359  0.36631549    -0.37800
N378        N  0.49097872  0.72368163  0.37108095    -0.39300
N379        N  0.38628941  0.85385586  0.30254165    -0.37100
N380        N  0.49108334  0.85704939  0.30683036    -0.39500
N381        N  0.49719651  0.85125800  0.37227350    -0.39300
N382        N  0.60267065  0.85137628  0.37194403    -0.36900
N383        N  0.60373232  0.72246814  0.30676495    -0.37900
N384        N  0.49867169  0.72850895  0.30481390    -0.39600
C385        C  0.76523269  0.71667250  0.22025107    -0.04500
C386        C  0.76739717  0.75096783  0.22683355     0.09600
C387        C  0.77595151  0.77858414  0.21500475    -0.01900
C388        C  0.78056932  0.77234742  0.19658008    -0.00200
C389        C  0.77800476  0.73802159  0.18984146    -0.03800
C390        C  0.77111605  0.71006528  0.20196394     0.03200
C391        C  0.75836381  0.75836600  0.24598309     0.10100
C392        C  0.77998255  0.81355836  0.22187569     0.36000
C393        C  0.76881155  0.67444408  0.19568376     0.39400
C394        C  0.78151669  0.74805947  0.26004211    -0.04200
C395        C  0.77184332  0.75333412  0.27806378     0.03000
C396        C  0.73917654  0.77002517  0.28222251    -0.03800
C397        C  0.71687048  0.78187299  0.26793422     0.00000
C398        C  0.72602744  0.77521792  0.25003368    -0.02500
C399        C  0.81528628  0.73172448  0.25591341     0.36700
C400        C  0.68478277  0.80197346  0.27143235     0.40300
C401        C  0.79525270  0.74041919  0.29221125     0.39500
C402        C  0.70173291  0.78517467  0.23567948     0.36400
C403        C  0.75591764  0.68823892  0.23227187     0.37100
C404        C  0.78852049  0.80139007  0.18467903     0.40300
N405        N  0.81399721  0.73002572  0.30345396    -0.37800
N406        N  0.84221243  0.71866971  0.25260770    -0.39300
N407        N  0.65928065  0.81818217  0.27415753    -0.37100
N408        N  0.68241658  0.79300117  0.22420092    -0.39500
N409        N  0.78324857  0.84141563  0.22740263    -0.39300
N410        N  0.79467882  0.82464853  0.17520076    -0.36900
N411        N  0.76717637  0.64590594  0.19083297    -0.37900
N412        N  0.74847944  0.66560815  0.24187821    -0.39600
C413        C  0.46430759  0.49255623  0.42351769    -0.04500
C414        C  0.47841828  0.47775280  0.40792331     0.09600
C415        C  0.45437038  0.46784208  0.39470387    -0.01900
C416        C  0.41783407  0.47490286  0.39699279    -0.00200
C417        C  0.40347142  0.47955883  0.41468680    -0.03800
C418        C  0.42915397  0.48666086  0.42825648     0.03200
C419        C  0.51780443  0.47013022  0.40720045     0.10100
C420        C  0.46607072  0.44684671  0.37977576     0.36000
C421        C  0.42194068  0.48979819  0.44708969     0.39400
C422        C  0.53473414  0.45686452  0.42267090    -0.04200
C423        C  0.56955425  0.46615111  0.42645196     0.03000
C424        C  0.59305908  0.47564502  0.41214117    -0.03800
C425        C  0.57663705  0.47644428  0.39461423     0.00000
C426        C  0.53940983  0.47956794  0.39280938    -0.02500
C427        C  0.51520184  0.43577304  0.43538773     0.36700
C428        C  0.59651950  0.47886182  0.37823142     0.40300
C429        C  0.57830651  0.46422998  0.44527173     0.39500
C430        C  0.52419298  0.49561341  0.37672522     0.36400
C431        C  0.48652008  0.51276332  0.43517224     0.37100
C432        C  0.39587199  0.47270028  0.38119842     0.40300
N433        N  0.58188496  0.46143345  0.46060028    -0.37800
N434        N  0.49971973  0.41902207  0.44548446    -0.39300
N435        N  0.60980716  0.48094182  0.36440823    -0.37100
N436        N  0.51237546  0.50866659  0.36387990    -0.39500
N437        N  0.47503528  0.42964269  0.36795789    -0.39300
N438        N  0.38027759  0.47061248  0.36796023    -0.36900
N439        N  0.41940171  0.49329629  0.46234766    -0.37900
N440        N  0.50417415  0.52886688  0.44439404    -0.39600
C441        C  0.63960654  0.57362197  0.38890593    -0.04500
C442        C  0.67550220  0.58022703  0.38985970     0.09600
C443        C  0.69765718  0.55692816  0.39957222    -0.01900
C444        C  0.68464007  0.52571732  0.40736993    -0.00200
C445        C  0.64805128  0.51679769  0.40589927    -0.03800
C446        C  0.62548390  0.54414504  0.39781331     0.03200
C447        C  0.68916230  0.61379483  0.38200324     0.10100
C448        C  0.73459882  0.56492401  0.40113108     0.36000
C449        C  0.58796279  0.54738034  0.40087308     0.39400
C450        C  0.68892931  0.64445452  0.39229886    -0.04200
C451        C  0.69699493  0.67718741  0.38438681     0.03000
C452        C  0.70662621  0.67943784  0.36611946    -0.03800
C453        C  0.70950188  0.64800132  0.35626737     0.00000
C454        C  0.70009911  0.61561685  0.36405006    -0.02500
C455        C  0.67913586  0.64231944  0.41098381     0.36700
C456        C  0.72199206  0.64875112  0.33797460     0.40300
C457        C  0.69289834  0.70863649  0.39486305     0.39500
C458        C  0.70058999  0.58439298  0.35328282     0.36400
C459        C  0.61659557  0.59894652  0.37948137     0.37100
C460        C  0.71082142  0.50257353  0.41581328     0.40300
N461        N  0.68932503  0.73362746  0.40328931    -0.37800
N462        N  0.67144084  0.64029696  0.42589440    -0.39300
N463        N  0.73194266  0.64931815  0.32339126    -0.37100
N464        N  0.70103228  0.55999541  0.34430778    -0.39500
N465        N  0.76399262  0.57134342  0.40235306    -0.39300
N466        N  0.73417052  0.48643908  0.42201076    -0.36900
N467        N  0.55832251  0.55240938  0.40347068    -0.37900
N468        N  0.59838300  0.61920896  0.37203040    -0.39600
C469        C  0.17314478  0.54539461  0.12705400    -0.04500
C470        C  0.20341002  0.52863668  0.13451599     0.09600
C471        C  0.23088473  0.54883187  0.14107988    -0.01900
C472        C  0.22797147  0.58575970  0.14039137    -0.00200
C473        C  0.19749288  0.60271611  0.13307238    -0.03800
C474        C  0.17009682  0.58229908  0.12635599     0.03200
C475        C  0.20585289  0.48954191  0.13580031     0.10100
C476        C  0.26227661  0.53147384  0.14841056     0.36000
C477        C  0.13817150  0.59910769  0.11927560     0.39400
C478        C  0.22098810  0.47004441  0.12183540    -0.04200
C479        C  0.22193500  0.43308178  0.12273928     0.03000
C480        C  0.20754275  0.41538258  0.13764585    -0.03800
C481        C  0.19257744  0.43514057  0.15169134     0.00000
C482        C  0.19216439  0.47206804  0.15083638    -0.02500
C483        C  0.23611125  0.48816456  0.10667120     0.36700
C484        C  0.17647178  0.41765597  0.16679387     0.40300
C485        C  0.23890988  0.41341893  0.10860340     0.39500
C486        C  0.17796179  0.49226017  0.16552298     0.36400
C487        C  0.14510269  0.52447967  0.12012599     0.37100
C488        C  0.25691299  0.60621674  0.14668027     0.40300
N489        N  0.25249536  0.39767979  0.09736613    -0.37800
N490        N  0.24833218  0.50265904  0.09462660    -0.39300
N491        N  0.16352107  0.40376808  0.17882132    -0.37100
N492        N  0.16691373  0.50844125  0.17727422    -0.39500
N493        N  0.28734719  0.51756825  0.15420026    -0.39300
N494        N  0.27998823  0.62258545  0.15166700    -0.36900
N495        N  0.11266418  0.61245791  0.11365383    -0.37900
N496        N  0.12284838  0.50767735  0.11458766    -0.39600
C497        C  0.25369299  0.94827300  0.33046403    -0.04500
C498        C  0.24680732  0.96106032  0.34771480     0.09600
C499        C  0.24060240  0.93686277  0.36179190    -0.01900
C500        C  0.24443145  0.90024636  0.35900850    -0.00200
C501        C  0.25432952  0.88754415  0.34204183    -0.03800
C502        C  0.25728391  0.91186579  0.32761815     0.03200
C503        C  0.25090306  0.99955292  0.35130634     0.10100
C504        C  0.23142525  0.94984268  0.37929686     0.36000
C505        C  0.26463718  0.89956592  0.30973124     0.39400
C506        C  0.22556733  0.02496908  0.34533637    -0.04200
C507        C  0.23250526  0.06124800  0.34618868     0.03000
C508        C  0.26506274  0.07255938  0.35300067    -0.03800
C509        C  0.28923901  0.04689266  0.36016010     0.00000
C510        C  0.28231148  0.01079097  0.35915454    -0.02500
C511        C  0.19288376  0.01363962  0.33762787     0.36700
C512        C  0.32165357  0.05736692  0.36852958     0.40300
C513        C  0.20676900  0.08661139  0.33907842     0.39500
C514        C  0.30842827  0.98491836  0.36545500     0.36400
C515        C  0.25862571  0.97273487  0.31569832     0.37100
C516        C  0.24036264  0.87596094  0.37389420     0.40300
N517        N  0.18615385  0.10678966  0.33340001    -0.37800
N518        N  0.16688092  0.00459840  0.33138476    -0.39300
N519        N  0.34757340  0.06553591  0.37520013    -0.37100
N520        N  0.32911760  0.96412383  0.37043024    -0.39500
N521        N  0.22407074  0.96030694  0.39325065    -0.39300
N522        N  0.23714430  0.85665357  0.38582412    -0.36900
N523        N  0.27069651  0.88987573  0.29547410    -0.37900
N524        N  0.26241438  0.99223202  0.30390498    -0.39600
C525        C  0.35340853  0.38465845  0.39608242    -0.04500
C526        C  0.31727016  0.37909453  0.39687002     0.09600
C527        C  0.29586965  0.40345280  0.40605144    -0.01900
C528        C  0.31000572  0.43477028  0.41297350    -0.00200
C529        C  0.34664592  0.44240944  0.41112886    -0.03800
C530        C  0.36826579  0.41322140  0.40488662     0.03200
C531        C  0.30307562  0.34572841  0.38924238     0.10100
C532        C  0.25882709  0.39668899  0.40785146     0.36000
C533        C  0.40449889  0.40693835  0.41057684     0.39400
C534        C  0.30531807  0.31400620  0.39929111    -0.04200
C535        C  0.29921320  0.28140281  0.39109471     0.03000
C536        C  0.29029456  0.28007621  0.37265874    -0.03800
C537        C  0.28471462  0.31233657  0.36315914     0.00000
C538        C  0.29177896  0.34469102  0.37126522    -0.02500
C539        C  0.31534178  0.31490391  0.41800418     0.36700
C540        C  0.27154545  0.31254852  0.34490789     0.40300
C541        C  0.30388635  0.24930545  0.40158585     0.39500
C542        C  0.28876719  0.37680358  0.36070488     0.36400
C543        C  0.37597458  0.35949779  0.38688055     0.37100
C544        C  0.28586507  0.45941936  0.42137290     0.40300
N545        N  0.30761022  0.22377488  0.41003994    -0.37800
N546        N  0.32324773  0.31570211  0.43294727    -0.39300
N547        N  0.26094123  0.31276265  0.33037480    -0.37100
N548        N  0.28620723  0.40185823  0.35182161    -0.39500
N549        N  0.22926612  0.39118906  0.40924267    -0.39300
N550        N  0.26576027  0.47840716  0.42795865    -0.36900
N551        N  0.43297524  0.40037706  0.41529982    -0.37900
N552        N  0.39388077  0.33957674  0.37946992    -0.39600
C553        C  0.22985685  0.21300324  0.21915256    -0.04500
C554        C  0.24711950  0.23445287  0.23136873     0.09600
C555        C  0.25918594  0.26726963  0.22561133    -0.01900
C556        C  0.25363573  0.27890650  0.20779808    -0.00200
C557        C  0.23580201  0.25773278  0.19546218    -0.03800
C558        C  0.22432274  0.22444633  0.20124926     0.03200
C559        C  0.25384060  0.22222331  0.25025824     0.10100
C560        C  0.27766803  0.28898730  0.23809032     0.36000
C561        C  0.20593056  0.20221316  0.18901628     0.39400
C562        C  0.28494433  0.20300966  0.25457398    -0.04200
C563        C  0.29304652  0.19401300  0.27253807     0.03000
C564        C  0.26999847  0.20432777  0.28648208    -0.03800
C565        C  0.23839855  0.22309559  0.28198119     0.00000
C566        C  0.23031469  0.23170637  0.26394137    -0.02500
C567        C  0.30880179  0.19278970  0.24041050     0.36700
C568        C  0.21491118  0.23529891  0.29588790     0.40300
C569        C  0.32511566  0.17380910  0.27647205     0.39500
C570        C  0.19790960  0.25078563  0.25940267     0.36400
C571        C  0.21760841  0.17918708  0.22511967     0.37100
C572        C  0.26738613  0.31236627  0.20215504     0.40300
N573        N  0.35080118  0.15781003  0.27951286    -0.37800
N574        N  0.32767351  0.18467325  0.22904886    -0.39300
N575        N  0.19622124  0.24520409  0.30696823    -0.37100
N576        N  0.17200188  0.26588950  0.25575369    -0.39500
N577        N  0.29243710  0.30621966  0.24806086    -0.39300
N578        N  0.27836357  0.33906058  0.19770437    -0.36900
N579        N  0.19132595  0.18436936  0.17927087    -0.37900
N580        N  0.20784255  0.15222945  0.22993506    -0.39600
C581        C  0.50294275  0.46826329  0.07249666    -0.04500
C582        C  0.49303070  0.48988206  0.05786260     0.09600
C583        C  0.48574380  0.47432059  0.04150198    -0.01900
C584        C  0.49147907  0.43785733  0.03916298    -0.00200
C585        C  0.49715882  0.41411436  0.05430294    -0.03800
C586        C  0.50315256  0.43112639  0.07116114     0.03200
C587        C  0.49258796  0.52942877  0.05902597     0.10100
C588        C  0.47319569  0.49655285  0.02665635     0.36000
C589        C  0.50744566  0.41147372  0.08781497     0.39400
C590        C  0.51968492  0.54832207  0.05129180    -0.04200
C591        C  0.51845552  0.58546508  0.05078430     0.03000
C592        C  0.48942299  0.60583164  0.05825548    -0.03800
C593        C  0.46191800  0.58520685  0.06608350     0.00000
C594        C  0.46413083  0.54785767  0.06655311    -0.02500
C595        C  0.54967364  0.52899590  0.04400655     0.36700
C596        C  0.42933202  0.59987709  0.07283619     0.40300
C597        C  0.54949054  0.60172107  0.04364727     0.39500
C598        C  0.43606200  0.52790844  0.07446926     0.36400
C599        C  0.51243460  0.48448975  0.08919000     0.37100
C600        C  0.49669851  0.42831844  0.02073894     0.40300
N601        N  0.57543415  0.61253390  0.03816602    -0.37800
N602        N  0.57349240  0.51354019  0.03824686    -0.39300
N603        N  0.40206578  0.60843284  0.07824350    -0.37100
N604        N  0.41344710  0.51264752  0.08089083    -0.39500
N605        N  0.46291479  0.51424252  0.01493117    -0.39300
N606        N  0.50197489  0.42382645  0.00573231    -0.36900
N607        N  0.51058841  0.39790888  0.10170400    -0.37900
N608        N  0.52017119  0.49734946  0.10248700    -0.39600
C609        C  0.42968958  0.30259551  0.07101047    -0.04500
C610        C  0.40664668  0.32278397  0.08154030     0.09600
C611        C  0.41090099  0.35907777  0.08213715    -0.01900
C612        C  0.43728170  0.37553111  0.07203692    -0.00200
C613        C  0.46458195  0.35534997  0.06310581    -0.03800
C614        C  0.45841154  0.31819311  0.06209224     0.03200
C615        C  0.37544146  0.30716781  0.09082764     0.10100
C616        C  0.38602397  0.38008721  0.09244550     0.36000
C617        C  0.48225971  0.29476386  0.05265087     0.39400
C618        C  0.37681447  0.29920935  0.10931969    -0.04200
C619        C  0.34567401  0.29266641  0.11890916     0.03000
C620        C  0.31251476  0.29362361  0.11009906    -0.03800
C621        C  0.31163365  0.29901824  0.09129075     0.00000
C622        C  0.34281470  0.30610869  0.08180523    -0.02500
C623        C  0.41013723  0.29939486  0.11875958     0.36700
C624        C  0.27839940  0.29995195  0.08174184     0.40300
C625        C  0.34796480  0.28573661  0.13802361     0.39500
C626        C  0.34107332  0.31482379  0.06287045     0.36400
C627        C  0.42420217  0.26526432  0.06971570     0.37100
C628        C  0.43044104  0.41258716  0.06867786     0.40300
N629        N  0.34992259  0.28047595  0.15328351    -0.37800
N630        N  0.43635508  0.29937096  0.12664197    -0.39300
N631        N  0.25191533  0.30074918  0.07407218    -0.37100
N632        N  0.33982533  0.32206363  0.04779445    -0.39500
N633        N  0.36609400  0.39661343  0.10062083    -0.39300
N634        N  0.42277938  0.44174735  0.06593784    -0.36900
N635        N  0.50042960  0.27493991  0.04533428    -0.37900
N636        N  0.41982946  0.23549530  0.06865419    -0.39600
C637        C  0.78993033  0.47169153  0.11286130    -0.04500
C638        C  0.81386545  0.49106249  0.12284956     0.09600
C639        C  0.83860075  0.47356441  0.13418794    -0.01900
C640        C  0.83847425  0.43680951  0.13611757    -0.00200
C641        C  0.81344865  0.41748592  0.12676598    -0.03800
C642        C  0.78956901  0.43494854  0.11486270     0.03200
C643        C  0.80971782  0.52995081  0.12344384     0.10100
C644        C  0.86321437  0.49362865  0.14440175     0.36000
C645        C  0.76304063  0.41547820  0.10560129     0.39400
C646        C  0.78567138  0.54488103  0.13556665    -0.04200
C647        C  0.78170779  0.58148331  0.13669469     0.03000
C648        C  0.80242125  0.60352076  0.12597378    -0.03800
C649        C  0.82631017  0.58850323  0.11364777     0.00000
C650        C  0.82980687  0.55169997  0.11235318    -0.02500
C651        C  0.76510956  0.52236410  0.14699597     0.36700
C652        C  0.84816860  0.61071440  0.10275414     0.40300
C653        C  0.75521987  0.59634664  0.14843792     0.39500
C654        C  0.85422241  0.53609954  0.09977270     0.36400
C655        C  0.76464637  0.48983103  0.10114776     0.37100
C656        C  0.86407182  0.41889377  0.14774528     0.40300
N657        N  0.73391253  0.60814392  0.15770599    -0.37800
N658        N  0.74885497  0.50427937  0.15609744    -0.39300
N659        N  0.86571195  0.62834322  0.09406885    -0.37100
N660        N  0.87367505  0.52360266  0.08973301    -0.39500
N661        N  0.88273931  0.50975082  0.15256062    -0.39300
N662        N  0.88449314  0.40456754  0.15699942    -0.36900
N663        N  0.74175596  0.40002227  0.09828120    -0.37900
N664        N  0.74444948  0.50433336  0.09183701    -0.39600
C665        C  0.97164997  0.26739914  0.14640021    -0.04500
C666        C  0.98894834  0.26557226  0.12979691     0.09600
C667        C  0.96862634  0.26333105  0.11399746    -0.01900
C668        C  0.93138864  0.26520821  0.11470723    -0.00200
C669        C  0.91415675  0.27036213  0.13119681    -0.03800
C670        C  0.93459445  0.26985795  0.14711676     0.03200
C671        C  0.02820716  0.26994319  0.12902370     0.10100
C672        C  0.98612981  0.26092349  0.09691035     0.36000
C673        C  0.91749382  0.27205581  0.16436489     0.39400
C674        C  0.05174133  0.24088259  0.12726158    -0.04200
C675        C  0.08862221  0.24530034  0.12819594     0.03000
C676        C  0.10235152  0.27901172  0.13074146    -0.03800
C677        C  0.07851960  0.30827441  0.13136462     0.00000
C678        C  0.04189102  0.30364681  0.13089622    -0.02500
C679        C  0.03787156  0.20627274  0.12503288     0.36700
C680        C  0.09156431  0.34359198  0.13207969     0.40300
C681        C  0.11217546  0.21488304  0.12726034     0.39500
C682        C  0.01805351  0.33370057  0.13282792     0.36400
C683        C  0.99220600  0.26817404  0.16277138     0.37100
C684        C  0.91099264  0.26369788  0.09834693     0.40300
N685        N  0.13088075  0.19050987  0.12650002    -0.37800
N686        N  0.02670566  0.17868476  0.12320867    -0.39300
N687        N  0.10202001  0.37172542  0.13256371    -0.37100
N688        N  0.99900502  0.35756180  0.13456744    -0.39500
N689        N  0.00015797  0.25907609  0.08327305    -0.39300
N690        N  0.89468967  0.26228588  0.08529135    -0.36900
N691        N  0.90386286  0.27379008  0.17811581    -0.37900
N692        N  0.00868252  0.26891431  0.17579745    -0.39600
C693        C  0.64643948  0.34739160  0.10369733    -0.04500
C694        C  0.63766799  0.32983818  0.08792094     0.09600
C695        C  0.66108019  0.30356315  0.08153501    -0.01900
C696        C  0.69300752  0.29501182  0.09078492    -0.00200
C697        C  0.70198310  0.31262882  0.10665617    -0.03800
C698        C  0.67828320  0.33920049  0.11290034     0.03200
C699        C  0.60306592  0.33871661  0.07851632     0.10100
C700        C  0.65208126  0.28503899  0.06547906     0.36000
C701        C  0.68705292  0.35960774  0.12842099     0.39400
C702        C  0.60048806  0.36544397  0.06543609    -0.04200
C703        C  0.56756008  0.37563267  0.05751189     0.03000
C704        C  0.53502676  0.35981746  0.06286886    -0.03800
C705        C  0.53874957  0.33525824  0.07785708     0.00000
C706        C  0.57222953  0.32323544  0.08433092    -0.02500
C707        C  0.63240694  0.38240399  0.05997527     0.36700
C708        C  0.51000501  0.32532775  0.08920403     0.40300
C709        C  0.56876084  0.40184247  0.04328118     0.39500
C710        C  0.57507239  0.29565611  0.09798816     0.36400
C711        C  0.62241645  0.37415892  0.11048767     0.37100
C712        C  0.71612753  0.26748594  0.08408062     0.40300
N713        N  0.57190648  0.42270007  0.03204712    -0.37800
N714        N  0.65791738  0.39583901  0.05568941    -0.39300
N715        N  0.48861653  0.31708093  0.09920329    -0.37100
N716        N  0.57739138  0.27370962  0.10882957    -0.39500
N717        N  0.64499800  0.27013124  0.05267406    -0.39300
N718        N  0.73451863  0.24548809  0.07867740    -0.36900
N719        N  0.69404402  0.37602406  0.14074219    -0.37900
N720        N  0.60315550  0.39540770  0.11589065    -0.39600
C721        C  0.47079712  0.19433582  0.35066552    -0.04500
C722        C  0.48789840  0.16417256  0.34387641     0.09600
C723        C  0.46819615  0.13563164  0.33832007    -0.01900
C724        C  0.43127904  0.13763002  0.33901029    -0.00200
C725        C  0.41397040  0.16831119  0.34523805    -0.03800
C726        C  0.43387211  0.19654363  0.35124684     0.03200
C727        C  0.52673689  0.16315727  0.34179821     0.10100
C728        C  0.48608729  0.10436145  0.33177220     0.36000
C729        C  0.41642596  0.22864992  0.35708375     0.39400
C730        C  0.54856346  0.15119839  0.35599822    -0.04200
C731        C  0.58532980  0.15140661  0.35419942     0.03000
C732        C  0.60049405  0.16414188  0.33818650    -0.03800
C733        C  0.57825362  0.17547639  0.32381256     0.00000
C734        C  0.54154306  0.17462327  0.32561079    -0.02500
C735        C  0.53301047  0.13877017  0.37248986     0.36700
C736        C  0.59274241  0.18960422  0.30739507     0.40300
C737        C  0.60728477  0.13788995  0.36880379     0.39500
C738        C  0.51880522  0.18592703  0.31084373     0.36400
C739        C  0.49130281  0.22330357  0.35676660     0.37100
C740        C  0.41119216  0.10787959  0.33356098     0.40300
N741        N  0.62458017  0.12705944  0.38052563    -0.37800
N742        N  0.52052628  0.12887449  0.38562506    -0.39300
N743        N  0.60421353  0.20091172  0.29430003    -0.37100
N744        N  0.50064817  0.19478357  0.29905734    -0.39500
N745        N  0.50055014  0.07949674  0.32658270    -0.39300
N746        N  0.39522686  0.08409090  0.32924150    -0.36900
N747        N  0.40247238  0.25429765  0.36163893    -0.37900
N748        N  0.50770937  0.24632464  0.36168736    -0.39600
C749        C  0.76545172  0.93752680  0.36142486    -0.04500
C750        C  0.74289654  0.96317802  0.35327321     0.09600
C751        C  0.71352675  0.95252051  0.34345413    -0.01900
C752        C  0.70696231  0.91661568  0.34146443    -0.00200
C753        C  0.72935177  0.89047765  0.34967754    -0.03800
C754        C  0.75878237  0.90133209  0.35966011     0.03200
C755        C  0.75035697  0.00163869  0.35398177     0.10100
C756        C  0.69015154  0.97882080  0.33510662     0.36000
C757        C  0.78204637  0.87549457  0.36834924     0.39400
C758        C  0.76909223  0.01749712  0.33996103    -0.04200
C759        C  0.76888296  0.05438723  0.33797473     0.03000
C760        C  0.74970835  0.07585019  0.34993918    -0.03800
C761        C  0.73412824  0.06000741  0.36507022     0.00000
C762        C  0.73422942  0.02301337  0.36698117    -0.02500
C763        C  0.78687229  0.99565846  0.32695534     0.36700
C764        C  0.71586357  0.08148485  0.37804995     0.40300
C765        C  0.78795526  0.07027826  0.32337346     0.39500
C766        C  0.71588757  0.00679777  0.38172859     0.36400
C767        C  0.79553579  0.94853039  0.37160913     0.37100
C768        C  0.67791216  0.90692559  0.33009284     0.40300
N769        N  0.80328045  0.08296426  0.31176440    -0.37800
N770        N  0.80095066  0.97812668  0.31658444    -0.39300
N771        N  0.70144273  0.09858181  0.38848861    -0.37100
N772        N  0.70119788  0.99381775  0.39347316    -0.39500
N773        N  0.67156434  0.99985432  0.32849885    -0.39300
N774        N  0.65481936  0.89928155  0.32097194    -0.36900
N775        N  0.80074925  0.85497823  0.37529239    -0.37900
N776        N  0.81950851  0.95741317  0.37975280    -0.39600
C777        C  0.65089764  0.38066465  0.40063627    -0.04500
C778        C  0.67504380  0.38247640  0.38672621     0.09600
C779        C  0.68643234  0.41524497  0.38097875    -0.01900
C780        C  0.67294916  0.44664635  0.38865977    -0.00200
C781        C  0.65022587  0.44601950  0.40416476    -0.03800
C782        C  0.63938497  0.41126819  0.40961137     0.03200
C783        C  0.68560422  0.34978850  0.37688836     0.10100
C784        C  0.71130346  0.41645915  0.36631330     0.36000
C785        C  0.61911879  0.40456676  0.42555799     0.39400
C786        C  0.66618897  0.34031523  0.36177913    -0.04200
C787        C  0.67426078  0.30877813  0.35289671     0.03000
C788        C  0.70147166  0.28523967  0.35943409    -0.03800
C789        C  0.72121866  0.29540066  0.37460090     0.00000
C790        C  0.71352793  0.32765880  0.38306613    -0.02500
C791        C  0.63711757  0.36298899  0.35560746     0.36700
C792        C  0.74890573  0.27257891  0.38202187     0.40300
C793        C  0.65389476  0.30118747  0.33702967     0.39500
C794        C  0.73417382  0.33804415  0.39832837     0.36400
C795        C  0.63810927  0.34645250  0.40590644     0.37100
C796        C  0.68078391  0.47804270  0.37857308     0.40300
N797        N  0.63740031  0.29543351  0.32442886    -0.37800
N798        N  0.61391097  0.38110019  0.35082359    -0.39300
N799        N  0.77095987  0.25449685  0.38810281    -0.37100
N800        N  0.75083872  0.34628185  0.41044889    -0.39500
N801        N  0.73105920  0.41731502  0.35464328    -0.39300
N802        N  0.68750677  0.50173194  0.36950954    -0.36900
N803        N  0.60429081  0.39540524  0.43817190    -0.37900
N804        N  0.62793378  0.31924330  0.41004015    -0.39600
C805        C  0.78930954  0.21239823  0.25567039    -0.04500
C806        C  0.76598800  0.23403026  0.24537055     0.09600
C807        C  0.73454964  0.24684340  0.25302159    -0.01900
C808        C  0.72586690  0.23725658  0.27068686    -0.00200
C809        C  0.74862141  0.21463141  0.28091866    -0.03800
C810        C  0.78075510  0.20278877  0.27341882     0.03200
C811        C  0.77444673  0.24388370  0.22644449     0.10100
C812        C  0.71116903  0.27011297  0.24264892     0.36000
C813        C  0.80452104  0.17977159  0.28367770     0.39400
C814        C  0.76135704  0.22430008  0.21217877    -0.04200
C815        C  0.76697258  0.23514993  0.19429079     0.03000
C816        C  0.78562128  0.26598148  0.19051680    -0.03800
C817        C  0.79954975  0.28496239  0.20497213     0.00000
C818        C  0.79380592  0.27399430  0.22279606    -0.02500
C819        C  0.74136052  0.19333223  0.21599652     0.36700
C820        C  0.82056804  0.31546351  0.20165617     0.40300
C821        C  0.75233024  0.21511283  0.17988738     0.39500
C822        C  0.80735113  0.29401844  0.23750199     0.36400
C823        C  0.82197101  0.19982227  0.24788688     0.37100
C824        C  0.69385143  0.25163019  0.27846293     0.40300
N825        N  0.74064541  0.19900525  0.16843654    -0.37800
N826        N  0.72534185  0.16869861  0.21909641    -0.39300
N827        N  0.83733235  0.33979951  0.19905807    -0.37100
N828        N  0.81806513  0.30993146  0.24927035    -0.39500
N829        N  0.69262917  0.28871553  0.23434444    -0.39300
N830        N  0.66835743  0.26316428  0.28465360    -0.36900
N831        N  0.82355385  0.16144478  0.29185417    -0.37900
N832        N  0.84804113  0.18984925  0.24164991    -0.39600
C833        C  0.77552949  0.20095510  0.71729477    -0.04500
C834        C  0.75700003  0.22766301  0.72642922     0.09600
C835        C  0.73210321  0.24919696  0.71711451    -0.01900
C836        C  0.72491063  0.24338174  0.69891949    -0.00200
C837        C  0.74258058  0.21587581  0.68982491    -0.03800
C838        C  0.76867336  0.19530672  0.69898351     0.03200
C839        C  0.76398438  0.23380133  0.74584077     0.10100
C840        C  0.71356733  0.27718191  0.72637462     0.36000
C841        C  0.78773774  0.16762805  0.68979737     0.39400
C842        C  0.78720093  0.25998182  0.75090067    -0.04200
C843        C  0.79180446  0.26787881  0.76910084     0.03000
C844        C  0.77330572  0.24943193  0.78246852    -0.03800
C845        C  0.75062275  0.22260197  0.77736762     0.00000
C846        C  0.74602743  0.21484128  0.75911263    -0.02500
C847        C  0.80621309  0.27893975  0.73726780     0.36700
C848        C  0.73058184  0.20414787  0.79077815     0.40300
C849        C  0.81608412  0.29472486  0.77401764     0.39500
C850        C  0.72228294  0.18777026  0.75390390     0.36400
C851        C  0.80116375  0.17889562  0.72690191     0.37100
C852        C  0.69971789  0.26630562  0.68946798     0.40300
N853        N  0.83540807  0.31617827  0.77792347    -0.37800
N854        N  0.82134128  0.29396551  0.72634560    -0.39300
N855        N  0.71449704  0.18949582  0.80146499    -0.37100
N856        N  0.70339569  0.16612880  0.74973074    -0.39500
N857        N  0.69883488  0.29950773  0.73377451    -0.39300
N858        N  0.67967228  0.28461887  0.68193329    -0.36900
N859        N  0.80319693  0.14566261  0.68248656    -0.37900
N860        N  0.82145894  0.16124355  0.73465844    -0.39600
C861        C  0.63989643  0.45113693  0.50254687    -0.04500
C862        C  0.65732921  0.47821067  0.49368666     0.09600
C863        C  0.67277484  0.50398891  0.50399392    -0.01900
C864        C  0.66547302  0.50686016  0.52250038    -0.00200
C865        C  0.64221423  0.48289905  0.53149231    -0.03800
C866        C  0.63382689  0.45239910  0.52123306     0.03200
C867        C  0.65736081  0.48104526  0.47347132     0.10100
C868        C  0.69699570  0.52752210  0.49530235     0.36000
C869        C  0.61622097  0.42256415  0.52885055     0.39400
C870        C  0.64013483  0.50965140  0.46480879    -0.04200
C871        C  0.63603138  0.51075184  0.44596451     0.03000
C872        C  0.64693272  0.48153106  0.43499975    -0.03800
C873        C  0.66987084  0.45580938  0.44405899     0.00000
C874        C  0.67413628  0.45553338  0.46296862    -0.02500
C875        C  0.62426981  0.53742286  0.47548937     0.36700
C876        C  0.69223836  0.43081115  0.43475590     0.40300
C877        C  0.61918432  0.54256621  0.43890411     0.39500
C878        C  0.69673241  0.42911522  0.47181449     0.36400
C879        C  0.62596114  0.42269740  0.49220328     0.37100
C880        C  0.68556000  0.53289574  0.53165482     0.40300
N881        N  0.60664011  0.56977919  0.43528717    -0.37800
N882        N  0.61173204  0.55972520  0.48382669    -0.39300
N883        N  0.71105315  0.41072768  0.42801563    -0.37100
N884        N  0.71459937  0.40804165  0.47888857    -0.39500
N885        N  0.71631198  0.54612184  0.48836132    -0.39300
N886        N  0.70279178  0.55353861  0.53831770    -0.36900
N887        N  0.60270742  0.39722786  0.53344701    -0.37900
N888        N  0.61492695  0.39987536  0.48409904    -0.39600
C889        C  0.63509188  0.39679356  0.58042112    -0.04500
C890        C  0.67085418  0.38779232  0.57943428     0.09600
C891        C  0.69273687  0.40887486  0.56920811    -0.01900
C892        C  0.67946608  0.44003071  0.56059420    -0.00200
C893        C  0.64283297  0.45109264  0.56171622    -0.03800
C894        C  0.62066028  0.42605123  0.57069796     0.03200
C895        C  0.68483901  0.35444062  0.58827020     0.10100
C896        C  0.72971766  0.39873790  0.56805478     0.36000
C897        C  0.58310717  0.42460429  0.56785970     0.39400
C898        C  0.68606784  0.32283113  0.57869091    -0.04200
C899        C  0.69560666  0.29075759  0.58744777     0.03000
C900        C  0.70373524  0.29003381  0.60592458    -0.03800
C901        C  0.70444741  0.32202646  0.61520832     0.00000
C902        C  0.69483061  0.35399661  0.60645671    -0.02500
C903        C  0.67593670  0.32321911  0.55996980     0.36700
C904        C  0.71517509  0.32208123  0.63385113     0.40300
C905        C  0.69494483  0.25832471  0.57765352     0.39500
C906        C  0.69404303  0.38632069  0.61636342     0.36400
C907        C  0.61249164  0.37422015  0.59083332     0.37100
C908        C  0.70538167  0.46062121  0.55145672     0.40300
N909        N  0.69441768  0.23244116  0.56983157    -0.37800
N910        N  0.66773519  0.32368112  0.54504738    -0.39300
N911        N  0.72389922  0.32213211  0.64869341    -0.37100
N912        N  0.69335435  0.41190923  0.62444560    -0.39500
N913        N  0.75914732  0.39060936  0.56721037    -0.39300
N914        N  0.72839437  0.47466969  0.54467088    -0.36900
N915        N  0.55343784  0.42103335  0.56540071    -0.37900
N916        N  0.59455345  0.35626925  0.59911095    -0.39600
C917        C  0.69860441  0.95809826  0.61610783    -0.04500
C918        C  0.73331649  0.96942807  0.61792300     0.09600
C919        C  0.76115441  0.94421780  0.61913781    -0.01900
C920        C  0.75415427  0.90792386  0.61973636    -0.00200
C921        C  0.71917826  0.89647809  0.61850716    -0.03800
C922        C  0.69161429  0.92198216  0.61601129     0.03200
C923        C  0.73967856  0.00789861  0.62007487     0.10100
C924        C  0.79697245  0.95580655  0.62018822     0.36000
C925        C  0.65575625  0.91125464  0.61331747     0.39400
C926        C  0.74371903  0.02149807  0.63735311    -0.04200
C927        C  0.74321911  0.05807089  0.63991210     0.03000
C928        C  0.73785645  0.08166634  0.62523828    -0.03800
C929        C  0.73694534  0.06798614  0.60774251     0.00000
C930        C  0.73778265  0.03123258  0.60521945    -0.02500
C931        C  0.74659436  0.99775732  0.65267528     0.36700
C932        C  0.73314723  0.09139059  0.59234670     0.40300
C933        C  0.74787746  0.07134671  0.65781134     0.39500
C934        C  0.73518796  0.01723856  0.58737998     0.36400
C935        C  0.66978325  0.98380995  0.61504517     0.37100
C936        C  0.78282756  0.88269677  0.62280451     0.40300
N937        N  0.75154138  0.08195065  0.67208111    -0.37800
N938        N  0.74883853  0.97883772  0.66490371    -0.39300
N939        N  0.73022236  0.10990501  0.57998243    -0.37100
N940        N  0.73305784  0.00592263  0.57317463    -0.39500
N941        N  0.82554119  0.96515905  0.62094891    -0.39300
N942        N  0.80576128  0.86265444  0.62538540    -0.36900
N943        N  0.62715848  0.90276888  0.61114753    -0.37900
N944        N  0.64689037  0.00440416  0.61428306    -0.39600
C945        C  0.69471723  0.64543206  0.57769016    -0.04500
C946        C  0.67003010  0.62258238  0.58517551     0.09600
C947        C  0.65275036  0.63216588  0.60104921    -0.01900
C948        C  0.65993123  0.66418185  0.60936833    -0.00200
C949        C  0.68521846  0.68704000  0.60212384    -0.03800
C950        C  0.70229039  0.67745213  0.58608202     0.03200
C951        C  0.66161575  0.58844208  0.57634989     0.10100
C952        C  0.62715474  0.60899643  0.60876268     0.36000
C953        C  0.72817143  0.70009742  0.57830006     0.39400
C954        C  0.67573025  0.55654532  0.58311394    -0.04200
C955        C  0.66530291  0.52391233  0.57618389     0.03000
C956        C  0.64209859  0.52224616  0.56078793    -0.03800
C957        C  0.62849280  0.55595145  0.55417257     0.00000
C958        C  0.63760000  0.58795221  0.56213734    -0.02500
C959        C  0.70046264  0.55753831  0.59798335     0.36700
C960        C  0.60645243  0.55941020  0.53833992     0.40300
C961        C  0.67671944  0.49366202  0.58683557     0.39500
C962        C  0.62209199  0.62105928  0.55561800     0.36400
C963        C  0.71251166  0.63584468  0.56134679     0.37100
C964        C  0.63963958  0.67420883  0.62492904     0.40300
N965        N  0.68630048  0.47107025  0.59633957    -0.37800
N966        N  0.72002075  0.55842443  0.60984932    -0.39300
N967        N  0.58927863  0.56519114  0.52576858    -0.37100
N968        N  0.60974119  0.64742237  0.55046216    -0.39500
N969        N  0.60689650  0.59037855  0.61491814    -0.39300
N970        N  0.62325544  0.68227185  0.63724997    -0.36900
N971        N  0.74883815  0.71810430  0.57202325    -0.37900
N972        N  0.72676130  0.62836381  0.54828220    -0.39600
C973        C  0.82025505  0.44750408  0.83541580    -0.04500
C974        C  0.79356967  0.46733212  0.84387159     0.09600
C975        C  0.76683106  0.45019661  0.85322041    -0.01900
C976        C  0.76584501  0.41328812  0.85343846    -0.00200
C977        C  0.79124704  0.39342322  0.84395523    -0.03800
C978        C  0.81906083  0.41064357  0.83538468     0.03200
C979        C  0.79213181  0.50632207  0.84181410     0.10100
C980        C  0.73975236  0.47074826  0.86214370     0.36000
C981        C  0.84683631  0.39042563  0.82677602     0.39400
C982        C  0.77186003  0.52208581  0.82790313    -0.04200
C983        C  0.76961437  0.55886912  0.82596377     0.03000
C984        C  0.78850919  0.58032496  0.83771192    -0.03800
C985        C  0.80899797  0.56419106  0.85166574     0.00000
C986        C  0.81050520  0.52735075  0.85374300    -0.02500
C987        C  0.75309341  0.50020676  0.81561196     0.36700
C988        C  0.82919096  0.58512668  0.86378441     0.40300
C989        C  0.74654914  0.57434347  0.81228317     0.39500
C990        C  0.83086591  0.51092181  0.86821390     0.36400
C991        C  0.84858414  0.46516869  0.82648111     0.37100
C992        C  0.73784453  0.39596015  0.86280230     0.40300
N993        N  0.72799175  0.58651958  0.80140067    -0.37800
N994        N  0.73823334  0.48261524  0.80584874    -0.39300
N995        N  0.84529902  0.60162193  0.87354742    -0.37100
N996        N  0.84701881  0.49778711  0.87977777    -0.39500
N997        N  0.71815357  0.48728680  0.86918275    -0.39300
N998        N  0.71561183  0.38210018  0.87034449    -0.36900
N999        N  0.86899163  0.37424835  0.81995509    -0.37900
N1000       N  0.87123633  0.47928767  0.81941345    -0.39600
C1001       C  0.73320220  0.76589525  0.75303310    -0.04500
C1002       C  0.75783414  0.75486488  0.74011841     0.09600
C1003       C  0.78892854  0.73680148  0.74562690    -0.01900
C1004       C  0.79439118  0.72780475  0.76381063    -0.00200
C1005       C  0.76886413  0.73708644  0.77668917    -0.03800
C1006       C  0.73868897  0.75710314  0.77129002     0.03200
C1007       C  0.74971416  0.75962756  0.72059268     0.10100
C1008       C  0.81506557  0.72703464  0.73246903     0.36000
C1009       C  0.71231312  0.76698735  0.78430765     0.39400
C1010       C  0.76005068  0.78986577  0.71113427    -0.04200
C1011       C  0.75135691  0.79440391  0.69281697     0.03000
C1012       C  0.73217382  0.76867242  0.68391360    -0.03800
C1013       C  0.72308971  0.73781243  0.69327525     0.00000
C1014       C  0.73175026  0.73336761  0.71153247    -0.02500
C1015       C  0.77919699  0.81644264  0.72038093     0.36700
C1016       C  0.70539968  0.71021942  0.68399472     0.40300
C1017       C  0.76088010  0.82618694  0.68337368     0.39500
C1018       C  0.72198174  0.70178297  0.72109501     0.36400
C1019       C  0.70180046  0.78557679  0.74740734     0.37100
C1020       C  0.82649124  0.70909155  0.76927567     0.40300
N1021       N  0.76848115  0.85157660  0.67585868    -0.37800
N1022       N  0.79449646  0.83755821  0.72783018    -0.39300
N1023       N  0.69144793  0.68820704  0.67652736    -0.37100
N1024       N  0.71423386  0.67660960  0.72875180    -0.39500
N1025       N  0.83594614  0.71941459  0.72195126    -0.39300
N1026       N  0.85206819  0.69417102  0.77367392    -0.36900
N1027       N  0.69120101  0.77485307  0.79466700    -0.37900
N1028       N  0.67681995  0.80135987  0.74287151    -0.39600
C1029       C  0.47008756  0.37165190  0.96406935    -0.04500
C1030       C  0.48976193  0.34639290  0.97419938     0.09600
C1031       C  0.50810806  0.32015932  0.96473915    -0.01900
C1032       C  0.51305011  0.32359546  0.94601675    -0.00200
C1033       C  0.48996964  0.34614076  0.93518814    -0.03800
C1034       C  0.46621933  0.36819759  0.94535566     0.03200
C1035       C  0.49153068  0.34762019  0.99454876     0.10100
C1036       C  0.52231422  0.28936445  0.97428353     0.36000
C1037       C  0.43608798  0.38650482  0.93719673     0.39400
C1038       C  0.46081220  0.35041114  0.00484768    -0.04200
C1039       C  0.46258934  0.36055651  0.02301119     0.03000
C1040       C  0.49546651  0.35903109  0.03289616    -0.03800
C1041       C  0.52478659  0.34555835  0.02278565     0.00000
C1042       C  0.52389461  0.34640207  0.00386567    -0.02500
C1043       C  0.42707103  0.34364830  0.99663208     0.36700
C1044       C  0.55372838  0.32521972  0.03067821     0.40300
C1045       C  0.43000855  0.37427978  0.03034777     0.39500
C1046       C  0.55676385  0.34707603  0.99418586     0.36400
C1047       C  0.45344608  0.40158126  0.97269130     0.37100
C1048       C  0.54484920  0.30658460  0.93972719     0.40300
N1049       N  0.40280464  0.38478785  0.03496695    -0.37800
N1050       N  0.40021830  0.33820887  0.99009450    -0.39300
N1051       N  0.57687129  0.30799766  0.03632581    -0.37100
N1052       N  0.58297324  0.34778151  0.98647632    -0.39500
N1053       N  0.53350441  0.26477522  0.98186190    -0.39300
N1054       N  0.57133147  0.29295277  0.93611795    -0.36900
N1055       N  0.41110063  0.40088670  0.93160142    -0.37900
N1056       N  0.43994228  0.42557133  0.97932135    -0.39600
C1057       C  0.65080894  0.27845604  0.89386239    -0.04500
C1058       C  0.61951057  0.27913255  0.88363623     0.09600
C1059       C  0.62087311  0.26857195  0.86566671    -0.01900
C1060       C  0.65355021  0.26095189  0.85750373    -0.00200
C1061       C  0.68542308  0.26453526  0.86713467    -0.03800
C1062       C  0.68358390  0.27094926  0.88572842     0.03200
C1063       C  0.58640393  0.29629284  0.89079155     0.10100
C1064       C  0.58864132  0.26731771  0.85530931     0.36000
C1065       C  0.71535776  0.27176721  0.89645299     0.39400
C1066       C  0.58267825  0.33289765  0.89009202    -0.04200
C1067       C  0.55079234  0.34995050  0.89492537     0.03000
C1068       C  0.52368916  0.33138049  0.90437596    -0.03800
C1069       C  0.52722217  0.29359516  0.90358324     0.00000
C1070       C  0.55799041  0.27668147  0.89669541    -0.02500
C1071       C  0.61164481  0.35329187  0.88342293     0.36700
C1072       C  0.50070009  0.27086697  0.91072070     0.40300
C1073       C  0.54567451  0.38487599  0.88714165     0.39500
C1074       C  0.56118286  0.23870063  0.89638057     0.36400
C1075       C  0.64950945  0.28742381  0.91259947     0.37100
C1076       C  0.65419342  0.24948995  0.83911738     0.40300
N1077       N  0.54257907  0.41227958  0.88033823    -0.37800
N1078       N  0.63474207  0.36951105  0.87821448    -0.39300
N1079       N  0.48081192  0.25108965  0.91618890    -0.37100
N1080       N  0.56374774  0.20842888  0.89609398    -0.39500
N1081       N  0.56284977  0.26628383  0.84711347    -0.39300
N1082       N  0.65457799  0.24016572  0.82447842    -0.36900
N1083       N  0.74060209  0.27224850  0.90511365    -0.37900
N1084       N  0.64893218  0.29461528  0.92755795    -0.39600
C1085       C  0.53483015  0.18850454  0.61838062    -0.04500
C1086       C  0.51732257  0.17274434  0.63281349     0.09600
C1087       C  0.53670997  0.15717489  0.64709044    -0.01900
C1088       C  0.57364307  0.15777977  0.64708629    -0.00200
C1089       C  0.59135364  0.17499841  0.63300946    -0.03800
C1090       C  0.57170303  0.19013110  0.61855978     0.03200
C1091       C  0.47826810  0.17493541  0.63356382     0.10100
C1092       C  0.51848325  0.14138783  0.66202067     0.36000
C1093       C  0.58898999  0.20945129  0.60442893     0.39400
C1094       C  0.45806938  0.14929325  0.62538501    -0.04200
C1095       C  0.42109493  0.15234465  0.62556434     0.03000
C1096       C  0.40422050  0.18095965  0.63417401    -0.03800
C1097       C  0.42474500  0.20653500  0.64241173     0.00000
C1098       C  0.46160595  0.20346767  0.64209229    -0.02500
C1099       C  0.47550445  0.11975797  0.61685268     0.36700
C1100       C  0.40811278  0.23694536  0.65058082     0.40300
C1101       C  0.40062418  0.12561374  0.61718126     0.39500
C1102       C  0.48256926  0.22996015  0.65036443     0.36400
C1103       C  0.51464566  0.20407320  0.60361332     0.37100
C1104       C  0.59326138  0.14039799  0.66155617     0.40300
N1105       N  0.38440380  0.10429028  0.61042653    -0.37800
N1106       N  0.48954962  0.09621334  0.61010042    -0.39300
N1107       N  0.39481056  0.26119969  0.65706242    -0.37100
N1108       N  0.49932437  0.25106184  0.65694666    -0.39500
N1109       N  0.50390299  0.12901623  0.67397318    -0.39300
N1110       N  0.60886505  0.12650341  0.67309578    -0.36900
N1111       N  0.60272112  0.22508533  0.59322690    -0.37900
N1112       N  0.49844333  0.21638927  0.59184859    -0.39600
C1113       C  0.02203766  0.25558757  0.83101715    -0.04500
C1114       C  0.00980072  0.24554283  0.84804558     0.09600
C1115       C  0.03437905  0.23804765  0.86188750    -0.01900
C1116       C  0.07080033  0.24232159  0.85899813    -0.00200
C1117       C  0.08302459  0.25446892  0.84219509    -0.03800
C1118       C  0.05826406  0.25994172  0.82806568     0.03200
C1119       C  0.97082606  0.24590584  0.85149441     0.10100
C1120       C  0.02193273  0.22679577  0.87926160     0.36000
C1121       C  0.06985041  0.26998786  0.81030877     0.39400
C1122       C  0.95000705  0.21800397  0.84598824    -0.04200
C1123       C  0.91284649  0.22161318  0.84589813     0.03000
C1124       C  0.89612649  0.25322831  0.85150632    -0.03800
C1125       C  0.91722965  0.27968701  0.85871266     0.00000
C1126       C  0.95424308  0.27608744  0.85857263    -0.02500
C1127       C  0.96701903  0.18585650  0.84001452     0.36700
C1128       C  0.90101748  0.31101698  0.86619919     0.40300
C1129       C  0.89218644  0.19346245  0.83904557     0.39500
C1130       C  0.97545198  0.30406757  0.86521734     0.36400
C1131       C  0.99700685  0.26245504  0.81658154     0.37100
C1132       C  0.09530442  0.23577728  0.87364349     0.40300
N1133       N  0.87578521  0.17092512  0.83356318    -0.37800
N1134       N  0.98065028  0.16012674  0.83535805    -0.39300
N1135       N  0.88812371  0.33603563  0.87213776    -0.37100
N1136       N  0.99241901  0.32629245  0.87057289    -0.39500
N1137       N  0.01186193  0.21785366  0.89311466    -0.39300
N1138       N  0.11478549  0.23046199  0.88537247    -0.36900
N1139       N  0.07896521  0.27806358  0.79613952    -0.37900
N1140       N  0.97693968  0.26784782  0.80511768    -0.39600
C1141       C  0.39677944  0.30623369  0.90667245    -0.04500
C1142       C  0.39223477  0.30876110  0.88809636     0.09600
C1143       C  0.42075068  0.31890055  0.87761095    -0.01900
C1144       C  0.45218559  0.33055862  0.88566746    -0.00200
C1145       C  0.45601924  0.33286157  0.90487871    -0.03800
C1146       C  0.42857414  0.31600618  0.91496517     0.03200
C1147       C  0.35713316  0.30090287  0.87967241     0.10100
C1148       C  0.41694252  0.31916110  0.85826430     0.36000
C1149       C  0.43266137  0.30400020  0.93338785     0.39400
C1150       C  0.32817734  0.32454502  0.88166095    -0.04200
C1151       C  0.29530338  0.31763462  0.87380875     0.03000
C1152       C  0.29079579  0.28702621  0.86371659    -0.03800
C1153       C  0.31963836  0.26317175  0.86184721     0.00000
C1154       C  0.35241215  0.26977436  0.87004022    -0.02500
C1155       C  0.33209490  0.35624247  0.89181951     0.36700
C1156       C  0.31546274  0.23149352  0.85172995     0.40300
C1157       C  0.26650816  0.34313260  0.87543213     0.39500
C1158       C  0.38117602  0.24420831  0.86886016     0.36400
C1159       C  0.36850283  0.29212543  0.91732438     0.37100
C1160       C  0.47902359  0.34193170  0.87341028     0.40300
N1161       N  0.24358968  0.36350117  0.87670394    -0.37800
N1162       N  0.33473145  0.38145276  0.90004050    -0.39300
N1163       N  0.31215185  0.20620404  0.84364496    -0.37100
N1164       N  0.40416006  0.22381375  0.86798923    -0.39500
N1165       N  0.41400162  0.31925114  0.84285871    -0.39300
N1166       N  0.49889907  0.34992228  0.86255768    -0.36900
N1167       N  0.43456683  0.29323941  0.94793740    -0.37900
N1168       N  0.34593667  0.28091407  0.92574093    -0.39600
C1169       C  0.23878117  0.25871016  0.74985616    -0.04500
C1170       C  0.21863914  0.23177316  0.74272704     0.09600
C1171       C  0.19367543  0.21520889  0.75355161    -0.01900
C1172       C  0.18914609  0.22522461  0.77150845    -0.00200
C1173       C  0.20902441  0.25252235  0.77863543    -0.03800
C1174       C  0.23374242  0.26935842  0.76763879     0.03200
C1175       C  0.22418701  0.22103114  0.72375848     0.10100
C1176       C  0.17215394  0.18836546  0.74604178     0.36000
C1177       C  0.25462795  0.29725221  0.77465661     0.39400
C1178       C  0.24579812  0.19150162  0.71995515    -0.04200
C1179       C  0.25543261  0.18449383  0.70216274     0.03000
C1180       C  0.24367523  0.20716042  0.68804014    -0.03800
C1181       C  0.21970302  0.23503478  0.69175658     0.00000
C1182       C  0.21008280  0.24195976  0.70957533    -0.02500
C1183       C  0.25876763  0.16881397  0.73443721     0.36700
C1184       C  0.20617934  0.25769730  0.67741181     0.40300
C1185       C  0.27709268  0.15361212  0.69838754     0.39500
C1186       C  0.18636216  0.27123292  0.71343443     0.36400
C1187       C  0.26490366  0.27537405  0.73882446     0.37100
C1188       C  0.16296739  0.20836177  0.78239415     0.40300
N1189       N  0.29420467  0.12887695  0.69537639    -0.37800
N1190       N  0.26892979  0.15066147  0.74600900    -0.39300
N1191       N  0.19523935  0.27575353  0.66598252    -0.37100
N1192       N  0.16743668  0.29457136  0.71655445    -0.39500
N1193       N  0.15490395  0.16704920  0.73999938    -0.39300
N1194       N  0.14208934  0.19495344  0.79110526    -0.36900
N1195       N  0.27122320  0.31960621  0.78018163    -0.37900
N1196       N  0.28569181  0.28856674  0.72997011    -0.39600
C1197       C  0.32335183  0.51584452  0.50708140    -0.04500
C1198       C  0.34700888  0.49406864  0.49754381     0.09600
C1199       C  0.37248065  0.47470926  0.50765522    -0.01900
C1200       C  0.37030169  0.47262112  0.52651079    -0.00200
C1201       C  0.34961372  0.49769719  0.53661512    -0.03800
C1202       C  0.32811336  0.52158375  0.52571286     0.03200
C1203       C  0.34461979  0.49009719  0.47723374     0.10100
C1204       C  0.40058805  0.45530937  0.49877995     0.36000
C1205       C  0.31237200  0.55388903  0.53207186     0.39400
C1206       C  0.34261735  0.51909437  0.46527087    -0.04200
C1207       C  0.33850229  0.51392166  0.44668317     0.03000
C1208       C  0.35105369  0.48203467  0.43861064    -0.03800
C1209       C  0.35319604  0.45252599  0.45110031     0.00000
C1210       C  0.34500919  0.45662459  0.46951350    -0.02500
C1211       C  0.34622813  0.55445918  0.47162880     0.36700
C1212       C  0.36379022  0.41729000  0.44621782     0.40300
C1213       C  0.31472360  0.53858962  0.43761165     0.39500
C1214       C  0.33765250  0.42610405  0.48062909     0.36400
C1215       C  0.29282894  0.53145529  0.49796072     0.37100
C1216       C  0.38756604  0.44200154  0.53479768     0.40300
N1217       N  0.29494931  0.55832300  0.43087178    -0.37800
N1218       N  0.34946946  0.58270590  0.47664401    -0.39300
N1219       N  0.37134658  0.38811752  0.44392024    -0.37100
N1220       N  0.33182147  0.40180271  0.48945776    -0.39500
N1221       N  0.42291190  0.43931662  0.49198460    -0.39300
N1222       N  0.40112335  0.41641262  0.54022217    -0.36900
N1223       N  0.29980626  0.58073426  0.53583432    -0.37900
N1224       N  0.26839228  0.54376746  0.49073507    -0.39600
C1225       C  0.52524617  0.48857984  0.54147789    -0.04500
C1226       C  0.51095981  0.49669731  0.55816929     0.09600
C1227       C  0.53377570  0.50355822  0.57236190    -0.01900
C1228       C  0.57066006  0.49901025  0.57039851    -0.00200
C1229       C  0.58653400  0.49148774  0.55324722    -0.03800
C1230       C  0.56186070  0.48977708  0.53848938     0.03200
C1231       C  0.47157088  0.49860185  0.56040526     0.10100
C1232       C  0.51898395  0.51418686  0.58936045     0.36000
C1233       C  0.57102722  0.49351318  0.51984302     0.39400
C1234       C  0.45425851  0.47222494  0.56982228    -0.04200
C1235       C  0.41703276  0.47062551  0.56957472     0.03000
C1236       C  0.39538855  0.49729481  0.56046911    -0.03800
C1237       C  0.41444436  0.52502801  0.55174356     0.00000
C1238       C  0.45156386  0.52532676  0.55177998    -0.02500
C1239       C  0.47514388  0.44563790  0.57960530     0.36700
C1240       C  0.39654663  0.55522534  0.54335520     0.40300
C1241       C  0.40378750  0.43894199  0.57755735     0.39500
C1242       C  0.46964040  0.55379015  0.54296217     0.36400
C1243       C  0.50164360  0.47938220  0.52703522     0.37100
C1244       C  0.59095274  0.49924474  0.58685372     0.40300
N1245       N  0.39660724  0.41228774  0.58394166    -0.37800
N1246       N  0.49097549  0.42443566  0.58773933    -0.39300
N1247       N  0.38410579  0.58032149  0.53677035    -0.37100
N1248       N  0.48410716  0.57634916  0.53592525    -0.39500
N1249       N  0.50720255  0.52257791  0.60290526    -0.39300
N1250       N  0.60484946  0.49926545  0.60065062    -0.36900
N1251       N  0.57541813  0.49748963  0.50465949    -0.37900
N1252       N  0.48280937  0.47198948  0.51560781    -0.39600
C1253       C  0.30705813  0.40480196  0.56395798    -0.04500
C1254       C  0.31057123  0.39809609  0.58236132     0.09600
C1255       C  0.32162229  0.42526948  0.59331630    -0.01900
C1256       C  0.33304969  0.45749017  0.58579200    -0.00200
C1257       C  0.33479284  0.46324615  0.56665872    -0.03800
C1258       C  0.31669123  0.43737087  0.55628694     0.03200
C1259       C  0.30257898  0.36229438  0.59014912     0.10100
C1260       C  0.32377481  0.41896992  0.61251920     0.36000
C1261       C  0.30324990  0.44384613  0.53830016     0.39400
C1262       C  0.32469755  0.33290873  0.58641048    -0.04200
C1263       C  0.31778444  0.29950619  0.59385796     0.03000
C1264       C  0.28929784  0.29511260  0.60566191    -0.03800
C1265       C  0.26682023  0.32433881  0.60916800     0.00000
C1266       C  0.27295301  0.35749072  0.60113631    -0.02500
C1267       C  0.35503866  0.33707710  0.57503845     0.36700
C1268       C  0.23688536  0.32021453  0.62078380     0.40300
C1269       C  0.34108814  0.26990488  0.58992241     0.39500
C1270       C  0.24850355  0.38666628  0.60400306     0.36400
C1271       C  0.29241838  0.37791078  0.55280193     0.37100
C1272       C  0.34516479  0.48277197  0.59848061     0.40300
N1273       N  0.35960713  0.24627402  0.58674328    -0.37800
N1274       N  0.37912468  0.34023322  0.56587209    -0.39300
N1275       N  0.21291961  0.31707388  0.63002849    -0.37100
N1276       N  0.22903754  0.41000271  0.60625488    -0.39500
N1277       N  0.32546819  0.41392384  0.62779967    -0.39300
N1278       N  0.35381840  0.50100814  0.60979157    -0.36900
N1279       N  0.29122668  0.44754463  0.52411840    -0.37900
N1280       N  0.28100083  0.35645294  0.54390429    -0.39600
C1281       C  0.50100937  0.67366077  0.96386482    -0.04500
C1282       C  0.50109998  0.64574307  0.97632995     0.09600
C1283       C  0.50583957  0.61152672  0.97021493    -0.01900
C1284       C  0.50627262  0.60448397  0.95172202    -0.00200
C1285       C  0.50015910  0.63211554  0.93834990    -0.03800
C1286       C  0.50206581  0.66721766  0.94519496     0.03200
C1287       C  0.49670442  0.65148129  0.99611649     0.10100
C1288       C  0.51181872  0.58325958  0.98335246     0.36000
C1289       C  0.50227878  0.69796266  0.93357920     0.39400
C1290       C  0.46744262  0.63819803  0.00487996    -0.04200
C1291       C  0.46573895  0.63712941  0.02374869     0.03000
C1292       C  0.49230509  0.65250788  0.03487367    -0.03800
C1293       C  0.52069438  0.66848491  0.02519889     0.00000
C1294       C  0.52328555  0.66626615  0.00628645    -0.02500
C1295       C  0.43889831  0.62463946  0.99424590     0.36700
C1296       C  0.54926707  0.68623940  0.03350144     0.40300
C1297       C  0.43448066  0.62169622  0.03110403     0.39500
C1298       C  0.55459588  0.67789797  0.99713366     0.36400
C1299       C  0.49744326  0.70932356  0.97026625     0.37100
C1300       C  0.51846989  0.56919475  0.94769334     0.40300
N1301       N  0.40847638  0.60947409  0.03559505    -0.37800
N1302       N  0.41616944  0.61364091  0.98590969    -0.39300
N1303       N  0.57357821  0.70092036  0.03836128    -0.37100
N1304       N  0.57948153  0.68711071  0.98985763    -0.39500
N1305       N  0.51671992  0.56098935  0.99383746    -0.39300
N1306       N  0.52932064  0.54095172  0.94561157    -0.36900
N1307       N  0.50275227  0.72410792  0.92553834    -0.37900
N1308       N  0.49462324  0.73773423  0.97534739    -0.39600
C1309       C  0.51916499  0.52755086  0.90121828    -0.04500
C1310       C  0.49412921  0.50813227  0.91038228     0.09600
C1311       C  0.46775087  0.52614976  0.91980949    -0.01900
C1312       C  0.46679557  0.56330768  0.92060380    -0.00200
C1313       C  0.49465866  0.58413668  0.91326257    -0.03800
C1314       C  0.52000367  0.56471168  0.90259175     0.03200
C1315       C  0.49464753  0.46845032  0.90978486     0.10100
C1316       C  0.44247903  0.50586862  0.92979859     0.36000
C1317       C  0.54625831  0.58091264  0.89161296     0.39400
C1318       C  0.51974287  0.44820214  0.91949184    -0.04200
C1319       C  0.51848561  0.41110786  0.92010692     0.03000
C1320       C  0.49122987  0.39232771  0.91104594    -0.03800
C1321       C  0.46579328  0.41429448  0.90124746     0.00000
C1322       C  0.46881396  0.45131147  0.90012758    -0.02500
C1323       C  0.54804275  0.46559058  0.92853661     0.36700
C1324       C  0.43403280  0.40171898  0.89329406     0.40300
C1325       C  0.54726474  0.39284309  0.92952751     0.39500
C1326       C  0.44461201  0.47252078  0.88900214     0.36400
C1327       C  0.54406552  0.50877226  0.88992799     0.37100
C1328       C  0.43818751  0.57843282  0.93087745     0.40300
N1329       N  0.57111863  0.37992159  0.93699476    -0.37800
N1330       N  0.57122998  0.47874108  0.93556757    -0.39300
N1331       N  0.40759366  0.39479538  0.88675309    -0.37100
N1332       N  0.42545008  0.48943720  0.88015899    -0.39500
N1333       N  0.42262902  0.48968028  0.93786416    -0.39300
N1334       N  0.41435788  0.58744242  0.93933088    -0.36900
N1335       N  0.56758291  0.59134308  0.88213491    -0.37900
N1336       N  0.56380818  0.49389537  0.88089542    -0.39600
C1337       C  0.59239423  0.65169598  0.90418504    -0.04500
C1338       C  0.58736959  0.67475052  0.88957653     0.09600
C1339       C  0.55320331  0.68680731  0.88535757    -0.01900
C1340       C  0.52366845  0.67362013  0.89455055    -0.00200
C1341       C  0.52742356  0.64569687  0.90795991    -0.03800
C1342       C  0.56336792  0.63841345  0.91370974     0.03200
C1343       C  0.61826389  0.68575643  0.87842999     0.10100
C1344       C  0.54871727  0.71411539  0.87166069     0.36000
C1345       C  0.57269984  0.61639911  0.92904033     0.39400
C1346       C  0.62301841  0.67209035  0.86117969    -0.04200
C1347       C  0.65365679  0.67908735  0.85135510     0.03000
C1348       C  0.68041842  0.69984730  0.85870705    -0.03800
C1349       C  0.67438963  0.71545293  0.87553535     0.00000
C1350       C  0.64350326  0.70848178  0.88527925    -0.02500
C1351       C  0.59654570  0.65006617  0.85357736     0.36700
C1352       C  0.69953841  0.73928802  0.88278349     0.40300
C1353       C  0.65774252  0.66345938  0.83390204     0.39500
C1354       C  0.63765864  0.72459715  0.90246528     0.36400
C1355       C  0.62803578  0.63994673  0.90885061     0.37100
C1356       C  0.49102136  0.69302400  0.89095409     0.40300
N1357       N  0.66072056  0.65101264  0.81997244    -0.37800
N1358       N  0.57543677  0.63276096  0.84732902    -0.39300
N1359       N  0.71948602  0.75843873  0.88857662    -0.37100
N1360       N  0.63296862  0.73737226  0.91619612    -0.39500
N1361       N  0.54530806  0.73592617  0.86080427    -0.39300
N1362       N  0.46598132  0.70996221  0.88776126    -0.36900
N1363       N  0.58399872  0.60028754  0.94110971    -0.37900
N1364       N  0.65636975  0.63056510  0.91251868    -0.39600
C1365       C  0.44100933  0.81568663  0.61547938    -0.04500
C1366       C  0.46334974  0.80003229  0.62857147     0.09600
C1367       C  0.44907803  0.78145263  0.64308710    -0.01900
C1368       C  0.41247974  0.77826379  0.64450393    -0.00200
C1369       C  0.38967625  0.79434622  0.63153501    -0.03800
C1370       C  0.40430564  0.81267713  0.61682086     0.03200
C1371       C  0.50222210  0.80155519  0.62676604     0.10100
C1372       C  0.47228208  0.76540156  0.65654899     0.36000
C1373       C  0.38192647  0.82882865  0.60305167     0.39400
C1374       C  0.52098321  0.82673384  0.63616540    -0.04200
C1375       C  0.55795949  0.82548604  0.63613411     0.03000
C1376       C  0.57626698  0.79938737  0.62641827    -0.03800
C1377       C  0.55735804  0.77543164  0.61616214     0.00000
C1378       C  0.52039644  0.77634329  0.61649609    -0.02500
C1379       C  0.50213611  0.85375982  0.64594023     0.36700
C1380       C  0.57578404  0.74885324  0.60585662     0.40300
C1381       C  0.57716824  0.85141729  0.64586396     0.39500
C1382       C  0.50093970  0.75074870  0.60666700     0.36400
C1383       C  0.45597454  0.83518879  0.60071191     0.37100
C1384       C  0.39866522  0.75684661  0.65888894     0.40300
N1385       N  0.59260942  0.87205243  0.65359042    -0.37800
N1386       N  0.48709970  0.87542989  0.65367047    -0.39300
N1387       N  0.59035871  0.72771484  0.59755667    -0.37100
N1388       N  0.48531764  0.73037436  0.59885693    -0.39500
N1389       N  0.49086108  0.75277267  0.66729130    -0.39300
N1390       N  0.38774327  0.73957549  0.67030677    -0.36900
N1391       N  0.36426728  0.84160709  0.59195598    -0.37900
N1392       N  0.46802256  0.85081154  0.58899153    -0.39600
C1393       C  0.25903598  0.03495495  0.60673902    -0.04500
C1394       C  0.24737062  0.01481303  0.62145809     0.09600
C1395       C  0.23689222  0.03196933  0.63721354    -0.01900
C1396       C  0.24046826  0.06852432  0.63870998    -0.00200
C1397       C  0.25426129  0.08838341  0.62439874    -0.03800
C1398       C  0.26243570  0.07162781  0.60818808     0.03200
C1399       C  0.25042671  0.97540373  0.62132356     0.10100
C1400       C  0.22393621  0.01170316  0.65222422     0.36000
C1401       C  0.27689817  0.09162082  0.59347558     0.39400
C1402       C  0.28365604  0.95873906  0.62384107    -0.04200
C1403       C  0.28688547  0.92188757  0.62519585     0.03000
C1404       C  0.25666222  0.90103028  0.62490111    -0.03800
C1405       C  0.22345345  0.91770690  0.62165477     0.00000
C1406       C  0.22046486  0.95472533  0.61972668    -0.02500
C1407       C  0.31462053  0.97970875  0.62562855     0.36700
C1408       C  0.19211933  0.89716179  0.62104041     0.40300
C1409       C  0.32172178  0.90556080  0.62661696     0.39500
C1410       C  0.18648587  0.97176016  0.61642569     0.36400
C1411       C  0.26913454  0.01758560  0.59039292     0.37100
C1412       C  0.23073603  0.08565764  0.65520824     0.40300
N1413       N  0.34954908  0.89269422  0.62772181    -0.37800
N1414       N  0.33926496  0.99644741  0.62710187    -0.39300
N1415       N  0.16699287  0.88089907  0.62054486    -0.37100
N1416       N  0.15943736  0.98551632  0.61377822    -0.39500
N1417       N  0.21347767  0.99550715  0.66416022    -0.39300
N1418       N  0.22305677  0.09937551  0.66835768    -0.36900
N1419       N  0.28857190  0.10758913  0.58177226    -0.37900
N1420       N  0.27733390  0.00364234  0.57738760    -0.39600
C1421       C  0.27253684  0.62688405  0.60814712    -0.04500
C1422       C  0.28692468  0.62671941  0.59079718     0.09600
C1423       C  0.29012679  0.65891334  0.58141409    -0.01900
C1424       C  0.28104550  0.69106061  0.58967407    -0.00200
C1425       C  0.26867261  0.69136384  0.60749368    -0.03800
C1426       C  0.26295513  0.65891754  0.61632325     0.03200
C1427       C  0.30303531  0.59332724  0.58340074     0.10100
C1428       C  0.30484698  0.65900373  0.56359026     0.36000
C1429       C  0.24740591  0.65846700  0.63397373     0.39400
C1430       C  0.28245551  0.56770415  0.57562738    -0.04200
C1431       C  0.29814006  0.53656798  0.56854951     0.03000
C1432       C  0.33576101  0.53090116  0.56812435    -0.03800
C1433       C  0.35520441  0.55535745  0.57887984     0.00000
C1434       C  0.33914044  0.58656171  0.58540748    -0.02500
C1435       C  0.24476570  0.57410870  0.57442307     0.36700
C1436       C  0.39033093  0.54803690  0.58597477     0.40300
C1437       C  0.27430984  0.51154264  0.56123952     0.39500
C1438       C  0.35971019  0.61146386  0.59527719     0.36400
C1439       C  0.26968832  0.59412154  0.61804761     0.37100
C1440       C  0.28690962  0.72381178  0.58020507     0.40300
N1441       N  0.25346219  0.49294471  0.55581840    -0.37800
N1442       N  0.21475414  0.57939854  0.57343820    -0.39300
N1443       N  0.41796167  0.54326740  0.59224871    -0.37100
N1444       N  0.37589868  0.63118632  0.60323030    -0.39500
N1445       N  0.31681587  0.65910259  0.54941496    -0.39300
N1446       N  0.29165188  0.74991680  0.57263079    -0.36900
N1447       N  0.23483213  0.65822511  0.64801359    -0.37900
N1448       N  0.26766807  0.56798362  0.62598475    -0.39600
C1449       C  0.15973642  0.53320249  0.82147852    -0.04500
C1450       C  0.16079886  0.51369443  0.83759887     0.09600
C1451       C  0.15950230  0.53099584  0.85405143    -0.01900
C1452       C  0.16008134  0.56788600  0.85446538    -0.00200
C1453       C  0.16167899  0.58772877  0.83826108    -0.03800
C1454       C  0.15983355  0.57007426  0.82175600     0.03200
C1455       C  0.16615031  0.47489948  0.83726863     0.10100
C1456       C  0.15863368  0.51057924  0.87058123     0.36000
C1457       C  0.15793326  0.58956335  0.80494336     0.39400
C1458       C  0.20049913  0.46039063  0.83589267    -0.04200
C1459       C  0.20602703  0.42377987  0.83587206     0.03000
C1460       C  0.17710300  0.40159589  0.83672133    -0.03800
C1461       C  0.14271242  0.41613051  0.83811326     0.00000
C1462       C  0.13727617  0.45278132  0.83843446    -0.02500
C1463       C  0.23009370  0.48327315  0.83429523     0.36700
C1464       C  0.11285016  0.39341591  0.83859722     0.40300
C1465       C  0.24153520  0.40895380  0.83566226     0.39500
C1466       C  0.10200863  0.46784421  0.83964326     0.36400
C1467       C  0.15938881  0.51512347  0.80457286     0.37100
C1468       C  0.16073696  0.58481163  0.87168277     0.40300
N1469       N  0.26987196  0.39716912  0.83568237    -0.37800
N1470       N  0.25357804  0.50162607  0.83286637    -0.39300
N1471       N  0.08911455  0.37519858  0.83893235    -0.37100
N1472       N  0.07387214  0.47989635  0.84058720    -0.39500
N1473       N  0.15776816  0.49417919  0.88371354    -0.39300
N1474       N  0.16121885  0.59803796  0.88548706    -0.36900
N1475       N  0.15645380  0.60492195  0.79147989    -0.37900
N1476       N  0.15914217  0.50066813  0.79110401    -0.39600
C1477       C  0.02085428  0.75179174  0.83646378    -0.04500
C1478       C  0.00245862  0.74041875  0.85169962     0.09600
C1479       C  0.02164484  0.73006426  0.86721479    -0.01900
C1480       C  0.05884417  0.72819003  0.86701852    -0.00200
C1481       C  0.07746802  0.73664551  0.85122693    -0.03800
C1482       C  0.05801296  0.74985238  0.83615152     0.03200
C1483       C  0.96351214  0.73448695  0.85045753     0.10100
C1484       C  0.00286610  0.71998420  0.88321043     0.36000
C1485       C  0.07571469  0.75892757  0.81966993     0.39400
C1486       C  0.95175111  0.70001687  0.84855432    -0.04200
C1487       C  0.91576429  0.69378611  0.84599619     0.03000
C1488       C  0.89077361  0.72208730  0.84485380    -0.03800
C1489       C  0.90248327  0.75664499  0.84709619     0.00000
C1490       C  0.93861521  0.76273225  0.85005119    -0.02500
C1491       C  0.97701097  0.67076441  0.84872762     0.36700
C1492       C  0.87780941  0.78617306  0.84535614     0.40300
C1493       C  0.90470812  0.65785080  0.84458501     0.39500
C1494       C  0.95033214  0.79815692  0.85235993     0.36400
C1495       C  0.00135928  0.76374793  0.82067434     0.37100
C1496       C  0.07777048  0.71699472  0.88308869     0.40300
N1497       N  0.89610557  0.62916431  0.84335831    -0.37800
N1498       N  0.99718023  0.64748560  0.84888495    -0.39300
N1499       N  0.85815224  0.80976019  0.84385125    -0.37100
N1500       N  0.95966571  0.82646127  0.85416609    -0.39500
N1501       N  0.98776536  0.71183632  0.89591553    -0.39300
N1502       N  0.09273148  0.70802627  0.89595621    -0.36900
N1503       N  0.08964916  0.76604194  0.80645431    -0.37900
N1504       N  0.98571878  0.77345086  0.80814500    -0.39600
C1505       C  0.34607464  0.70544935  0.87825875    -0.04500
C1506       C  0.35425808  0.67158564  0.88536881     0.09600
C1507       C  0.32800035  0.64631127  0.88551262    -0.01900
C1508       C  0.29453579  0.65413255  0.87790984    -0.00200
C1509       C  0.28643101  0.68773549  0.87025806    -0.03800
C1510       C  0.31221951  0.71365873  0.87097476     0.03200
C1511       C  0.39018491  0.66231012  0.89319578     0.10100
C1512       C  0.33555146  0.61206497  0.89360461     0.36000
C1513       C  0.30444827  0.74847828  0.86371038     0.39400
C1514       C  0.39787888  0.66987594  0.91100040    -0.04200
C1515       C  0.42972512  0.65753578  0.91933629     0.03000
C1516       C  0.45729641  0.63959764  0.90933470    -0.03800
C1517       C  0.44805287  0.63247945  0.89093487     0.00000
C1518       C  0.41509547  0.64325593  0.88332049    -0.02500
C1519       C  0.37152690  0.68942482  0.92110566     0.36700
C1520       C  0.47276270  0.61635954  0.87868181     0.40300
C1521       C  0.42971408  0.66085615  0.93855267     0.39500
C1522       C  0.40682898  0.63536764  0.86485077     0.36400
C1523       C  0.37280121  0.73166533  0.87814821     0.37100
C1524       C  0.26818638  0.62746382  0.87830991     0.40300
N1525       N  0.42635730  0.66396945  0.95381311    -0.37800
N1526       N  0.35052792  0.70496867  0.92909229    -0.39300
N1527       N  0.49053225  0.60443582  0.86772540    -0.37100
N1528       N  0.40021958  0.62913230  0.85014775    -0.39500
N1529       N  0.34173826  0.58485358  0.90012604    -0.39300
N1530       N  0.24729658  0.60607596  0.87864244    -0.36900
N1531       N  0.29827918  0.77637355  0.85800885    -0.37900
N1532       N  0.39412922  0.75262055  0.87800750    -0.39600
C1533       C  0.17886175  0.73175225  0.75240669    -0.04500
C1534       C  0.20488561  0.75530434  0.74729886     0.09600
C1535       C  0.22508407  0.77119000  0.76060737    -0.01900
C1536       C  0.22120263  0.76157713  0.77883011    -0.00200
C1537       C  0.19650140  0.73625913  0.78397688    -0.03800
C1538       C  0.17456636  0.72229104  0.77058904     0.03200
C1539       C  0.21359236  0.76036888  0.72786754     0.10100
C1540       C  0.25032177  0.79712842  0.75544370     0.36000
C1541       C  0.14702647  0.69850535  0.77538620     0.39400
C1542       C  0.19991705  0.78942595  0.71786711    -0.04200
C1543       C  0.20960408  0.79436924  0.69976404     0.03000
C1544       C  0.23289466  0.77007641  0.69150766    -0.03800
C1545       C  0.24531458  0.74024058  0.70139724     0.00000
C1546       C  0.23595251  0.73561301  0.71948019    -0.02500
C1547       C  0.17614603  0.81436302  0.72629998     0.36700
C1548       C  0.26712963  0.71367868  0.69284710     0.40300
C1549       C  0.19675608  0.82523579  0.68991522     0.39500
C1550       C  0.24966650  0.70541452  0.72960951     0.36400
C1551       C  0.15657118  0.71711347  0.73881188     0.37100
C1552       C  0.24400158  0.77663607  0.79206016     0.40300
N1553       N  0.18656173  0.84989892  0.68205493    -0.37800
N1554       N  0.15713326  0.83423824  0.73303645    -0.39300
N1555       N  0.28438008  0.69242387  0.68599793    -0.37100
N1556       N  0.26053091  0.68139040  0.73775523    -0.39500
N1557       N  0.27020809  0.81805568  0.75130169    -0.39300
N1558       N  0.26229584  0.78865077  0.80257467    -0.36900
N1559       N  0.12497209  0.67957166  0.77912709    -0.37900
N1560       N  0.13873451  0.70561503  0.72794098    -0.39600
loop_ 
_geom_bond_atom_site_label_1 
_geom_bond_atom_site_label_2 
_geom_bond_distance 
_geom_bond_site_symmetry_2 
_ccdc_geom_bond_type 
O1            C4   1.265       .  A
O1           Cd6   2.464       .  S
C2           O11   1.266       .  A
C2            O7   1.267       .  A
C2         C1453   1.492       .  S
O3            C9   1.271       .  A
O3           Cd6   2.587       .  S
C4           O12   1.269       .  A
C4         C1537   1.503       .  S
C5           O10   1.265       .  A
C5            O8   1.265       .  A
C5         C1481   1.509       .  S
Cd6          O13   2.457       .  S
Cd6          O12   2.505       .  S
Cd6          O11   2.452       .  S
Cd6           O7   2.435       .  S
Cd6          O10   2.507       .  S
Cd6           O8   2.507       .  S
C9           O13   1.258       .  A
C9         C1509   1.506       .  S
O14          C17   1.264       .  A
O14         Cd19   2.450       .  S
C15          O24   1.265       .  A
C15          O20   1.266       .  A
C15        C1369   1.492       .  S
O16          C22   1.271       .  A
O16         Cd19   2.534       .  S
C17          O25   1.269       .  A
C17        C1544   1.494       .  S
C18          O23   1.272       .  A
C18          O21   1.262       .  A
C18        C1404   1.501       .  S
Cd19         O26   2.453       .  S
Cd19         O25   2.515       .  S
Cd19         O24   2.462       .  S
Cd19         O20   2.451       .  S
Cd19         O23   2.545       .  S
Cd19         O21   2.425       .  S
C22          O26   1.263       .  A
C22        C1425   1.501       .  S
C27        C1285   1.616       .  S
C27        C1313   1.618       .  S
C27        C1341   1.623       .  S
C27        C1516   1.624       .  S
C28        C1201   1.618       .  S
C28        C1236   1.611       .  S
C28        C1257   1.621       .  S
C28        C1432   1.623       .  S
O29          C32   1.266       .  A
O29         Cd34   2.446       .  S
C30          O39   1.264       .  A
C30          O35   1.265       .  A
C30        C1460   1.475       .  S
O31          C37   1.273       .  A
O31         Cd34   2.551       .  S
C32          O40   1.270       .  A
C32        C1173   1.490       .  S
C33          O38   1.267       .  A
C33          O36   1.263       .  A
C33        C1152   1.499       .  S
Cd34         O41   2.444       .  S
Cd34         O40   2.480       .  S
Cd34         O39   2.448       .  S
Cd34         O35   2.450       .  S
Cd34         O38   2.509       .  S
Cd34         O36   2.499       .  S
C37          O41   1.263       .  A
C37        C1117   1.507       .  S
O42          C45   1.264       .  A
O42         Cd47   2.444       .  S
C43          O52   1.270       .  A
C43          O48   1.266       .  A
C43        C1180   1.489       .  S
O44          C50   1.268       .  A
O44         Cd47   2.510       .  S
C45          O53   1.264       .  A
C45        C1096   1.485       .  S
C46          O51   1.270       .  A
C46          O49   1.261       .  A
C46        C1397   1.489       .  S
Cd47         O54   2.497       .  S
Cd47         O53   2.466       .  S
Cd47         O52   2.486       .  S
Cd47         O48   2.434       .  S
Cd47         O51   2.530       .  S
Cd47         O49   2.431       .  S
C50          O54   1.264       .  A
C50        C1264   1.499       .  S
C55        C1033   1.614       .  S
C55        C1068   1.616       .  S
C55        C1145   1.619       .  S
C55        C1320   1.616       .  S
O56          C59   1.266       .  A
O56         Cd61   2.461       .  S
C57          O66   1.269       .  A
C57          O62   1.265       .  A
C57        C1005   1.488       .  S
O58          C64   1.269       .  A
O58         Cd61   2.519       .  S
C59          O67   1.264       .  A
C59         C984   1.494       .  S
C60          O65   1.271       .  A
C60          O63   1.261       .  A
C60        C1488   1.502       .  S
Cd61         O68   2.456       .  S
Cd61         O67   2.463       .  S
Cd61         O66   2.497       .  S
Cd61         O62   2.437       .  S
Cd61         O65   2.544       .  S
Cd61         O63   2.433       .  S
C64          O68   1.263       .  A
C64        C1348   1.508       .  S
O69          C72   1.266       .  A
O69         Cd74   2.444       .  S
C70          O79   1.269       .  A
C70          O75   1.265       .  A
C70        C1012   1.487       .  S
O71          C77   1.270       .  A
O71         Cd74   2.539       .  S
C72          O80   1.265       .  A
C72        C1376   1.479       .  S
C73          O78   1.273       .  A
C73          O76   1.262       .  A
C73         C921   1.502       .  S
Cd74         O81   2.455       .  S
Cd74         O80   2.449       .  S
Cd74         O79   2.500       .  S
Cd74         O75   2.437       .  S
Cd74         O78   2.542       .  S
Cd74         O76   2.428       .  S
C77          O81   1.263       .  A
C77         C949   1.507       .  S
C82         C865   1.615       .  S
C82         C893   1.618       .  S
C82         C956   1.617       .  S
C82        C1229   1.615       .  S
O83          C86   1.263       .  A
O83         Cd88   2.450       .  S
C84          O93   1.267       .  A
C84          O89   1.266       .  A
C84         C977   1.483       .  S
O85          C91   1.269       .  A
O85         Cd88   2.529       .  S
C86          O94   1.268       .  A
C86         C844   1.491       .  S
C87          O92   1.270       .  A
C87          O90   1.260       .  A
C87        C1124   1.505       .  S
Cd88         O95   2.466       .  S
Cd88         O94   2.495       .  S
Cd88         O93   2.471       .  S
Cd88         O89   2.439       .  S
Cd88         O92   2.551       .  S
Cd88         O90   2.441       .  S
C91          O95   1.263       .  A
C91        C1061   1.506       .  S
O96          C99   1.262       .  A
O96        Cd101   2.425       .  S
C97         O106   1.266       .  A
C97         O102   1.263       .  A
C97        C1089   1.485       .  S
O98         C104   1.261       .  A
O98        Cd101   2.439       .  S
C99         O107   1.270       .  A
C99         C837   1.490       .  S
C100        O105   1.270       .  A
C100        O103   1.263       .  A
C100        C928   1.500       .  S
Cd101       O108   2.535       .  S
Cd101       O107   2.518       .  S
Cd101       O106   2.463       .  S
Cd101       O102   2.433       .  S
Cd101       O105   2.539       .  S
Cd101       O103   2.432       .  S
C104        O108   1.270       .  A
C104        C900   1.493       .  S
O109        C112   1.266       .  A
O109       Cd114   2.444       .  S
C110        O119   1.270       .  A
C110        O115   1.264       .  A
C110        C809   1.491       .  S
O111        C117   1.274       .  A
O111       Cd114   2.539       .  S
C112        O120   1.265       .  A
C112        C732   1.488       .  S
C113        O118   1.270       .  A
C113        O116   1.262       .  A
C113        C760   1.497       .  S
Cd114       O121   2.409       .  S
Cd114       O120   2.441       .  S
Cd114       O119   2.501       .  S
Cd114       O115   2.431       .  S
Cd114       O118   2.532       .  S
Cd114       O116   2.448       .  S
C117        O121   1.260       .  A
C117        C788   1.514       .  S
O122        C125   1.266       .  A
O122       Cd127   2.449       .  S
C123        O132   1.270       .  A
C123        O128   1.267       .  A
C123        C816   1.498       .  S
O124        C130   1.272       .  A
O124       Cd127   2.549       .  S
C125        O133   1.264       .  A
C125        C641   1.477       .  S
C126        O131   1.274       .  A
C126        O129   1.262       .  A
C126        C669   1.502       .  S
Cd127       O134   2.461       .  S
Cd127       O133   2.444       .  S
Cd127       O132   2.487       .  S
Cd127       O128   2.441       .  S
Cd127       O131   2.557       .  S
Cd127       O129   2.432       .  S
C130        O134   1.264       .  A
C130        C697   1.514       .  S
C135        C585   1.613       .  S
C135        C613   1.616       .  S
C135        C704   1.627       .  S
C135       C1040   1.616       .  S
O136        C139   1.263       .  A
O136       Cd141   2.452       .  S
C137        O146   1.266       .  A
C137        O142   1.265       .  A
C137        C725   1.479       .  S
O138        C144   1.270       .  A
O138       Cd141   2.553       .  S
C139        O147   1.268       .  A
C139        C564   1.498       .  S
C140        O145   1.270       .  A
C140        O143   1.262       .  A
C140        C508   1.508       .  S
Cd141       O148   2.465       .  S
Cd141       O147   2.499       .  S
Cd141       O146   2.458       .  S
Cd141       O142   2.441       .  S
Cd141       O145   2.549       .  S
Cd141       O143   2.460       .  S
C144        O148   1.263       .  A
C144        C536   1.514       .  S
O149        C152   1.262       .  A
O149       Cd154   2.436       .  S
C150        O159   1.267       .  A
C150        O155   1.264       .  A
C150        C480   1.487       .  S
O151        C157   1.271       .  A
O151       Cd154   2.544       .  S
C152        O160   1.269       .  A
C152        C557   1.496       .  S
C153        O158   1.271       .  A
C153        O156   1.262       .  A
C153        C676   1.507       .  S
Cd154       O161   2.467       .  S
Cd154       O160   2.509       .  S
Cd154       O159   2.466       .  S
Cd154       O155   2.445       .  S
Cd154       O158   2.564       .  S
Cd154       O156   2.443       .  S
C157        O161   1.263       .  A
C157        C620   1.509       .  S
C162        C424   1.612       .  S
C162        C445   1.619       .  S
C162        C781   1.617       .  S
C162        C872   1.616       .  S
O163        C166   1.267       .  A
O163       Cd168   2.435       .  S
C164        O173   1.269       .  A
C164        O169   1.264       .  A
C164        C396   1.503       .  S
O165        C171   1.270       .  A
O165       Cd168   2.546       .  S
C166        O174   1.267       .  A
C166        C361   1.481       .  S
C167        O172   1.270       .  A
C167        O170   1.261       .  A
C167        C452   1.504       .  S
Cd168       O175   2.441       .  S
Cd168       O174   2.455       .  S
Cd168       O173   2.508       .  S
Cd168       O169   2.449       .  S
Cd168       O172   2.539       .  S
Cd168       O170   2.442       .  S
C171        O175   1.262       .  A
C171        C753   1.505       .  S
O176        C179   1.265       .  A
O176       Cd181   2.466       .  S
C177        O186   1.266       .  A
C177        O182   1.266       .  A
C177        C648   1.482       .  S
O178        C184   1.268       .  A
O178       Cd181   2.533       .  S
C179        O187   1.269       .  A
C179        C389   1.500       .  S
C180        O185   1.261       .  A
C180        O183   1.268       .  A
C180        C312   1.498       .  S
Cd181       O188   2.455       .  S
Cd181       O187   2.493       .  S
Cd181       O186   2.467       .  S
Cd181       O182   2.434       .  S
Cd181       O185   2.445       .  S
Cd181       O183   2.532       .  S
C184        O188   1.261       .  A
C184        C340   1.498       .  S
C189        C284   1.618       .  S
C189        C333   1.620       .  S
C189        C592   1.618       .  S
C189       C1292   1.611       .  S
O190        C193   1.266       .  A
O190       Cd195   2.448       .  S
C191        O200   1.264       .  A
C191        O196   1.266       .  A
C191        C473   1.486       .  S
O192        C198   1.270       .  A
O192       Cd195   2.548       .  S
C193        O201   1.269       .  A
C193        C249   1.493       .  S
C194        O199   1.267       .  A
C194        O197   1.263       .  A
C194        C277   1.497       .  S
Cd195       O202   2.439       .  S
Cd195       O201   2.510       .  S
Cd195       O200   2.455       .  S
Cd195       O196   2.469       .  S
Cd195       O199   2.511       .  S
Cd195       O197   2.483       .  S
C198        O202   1.261       .  A
C198        C305   1.504       .  S
O203        C206   1.265       .  A
O203       Cd208   2.448       .  S
C204        O213   1.265       .  A
C204        O209   1.267       .  A
C204        C368   1.481       .  S
O205        C211   1.273       .  A
O205       Cd208   2.550       .  S
C206        O214   1.269       .  A
C206        C256   1.490       .  S
C207        O212   1.271       .  A
C207        O210   1.264       .  A
C207        C221   1.513       .  S
Cd208       O215   2.429       .  S
Cd208       O214   2.505       .  S
Cd208       O213   2.444       .  S
Cd208       O209   2.450       .  S
Cd208       O212   2.536       .  S
Cd208       O210   2.471       .  S
C211        O215   1.263       .  A
C211        C501   1.501       .  S
C216        C228   1.630       .  S
C216        C417   1.603       .  S
C216        C529   1.619       .  S
C216       C1208   1.623       .  S
C217        C218   1.414       .  A
C217        C222   1.420       .  A
C217        C235   1.448       .  S
C218        C223   1.517       .  S
C218        C219   1.410       .  A
C219        C220   1.417       .  A
C219        C224   1.451       .  S
C220        C221   1.425       .  A
C220        C236   1.452       .  S
C221        C222   1.419       .  A
C222        C225   1.450       .  S
C223        C226   1.400       .  A
C223        C230   1.398       .  A
C224        N241   1.157       .  T
C225        N243   1.157       .  T
C226        C227   1.427       .  A
C226        C231   1.454       .  S
C227        C228   1.451       .  A
C227        C233   1.442       .  S
C228        C229   1.457       .  A
C229        C230   1.422       .  A
C229        C232   1.450       .  S
C230        C234   1.456       .  S
C231        N238   1.157       .  T
C232        N239   1.158       .  T
C233        N237   1.156       .  T
C234        N240   1.157       .  T
C235        N244   1.157       .  T
C236        N242   1.158       .  T
C245        C246   1.413       .  A
C245        C250   1.415       .  A
C245        C263   1.450       .  S
C246        C251   1.502       .  S
C246        C247   1.410       .  A
C247        C248   1.412       .  A
C247        C252   1.450       .  S
C248        C249   1.415       .  A
C248        C264   1.451       .  S
C249        C250   1.416       .  A
C250        C253   1.450       .  S
C251        C254   1.412       .  A
C251        C258   1.412       .  A
C252        N269   1.157       .  T
C253        N271   1.157       .  T
C254        C255   1.416       .  A
C254        C259   1.450       .  S
C255        C256   1.416       .  A
C255        C261   1.450       .  S
C256        C257   1.413       .  A
C257        C258   1.411       .  A
C257        C260   1.451       .  S
C258        C262   1.451       .  S
C259        N266   1.157       .  T
C260        N267   1.157       .  T
C261        N265   1.157       .  T
C262        N268   1.157       .  T
C263        N272   1.157       .  T
C264        N270   1.157       .  T
C273        C274   1.413       .  A
C273        C278   1.416       .  A
C273        C291   1.449       .  S
C274        C279   1.511       .  S
C274        C275   1.414       .  A
C275        C276   1.415       .  A
C275        C280   1.451       .  S
C276        C277   1.417       .  A
C276        C292   1.451       .  S
C277        C278   1.415       .  A
C278        C281   1.450       .  S
C279        C282   1.405       .  A
C279        C286   1.399       .  A
C280        N297   1.157       .  T
C281        N299   1.157       .  T
C282        C283   1.423       .  A
C282        C287   1.453       .  S
C283        C284   1.444       .  A
C283        C289   1.448       .  S
C284        C285   1.455       .  A
C285        C286   1.418       .  A
C285        C288   1.454       .  S
C286        C290   1.454       .  S
C287        N294   1.157       .  T
C288        N295   1.158       .  T
C289        N293   1.157       .  T
C290        N296   1.157       .  T
C291        N300   1.157       .  T
C292        N298   1.157       .  T
C301        C302   1.411       .  A
C301        C306   1.419       .  A
C301        C319   1.449       .  S
C302        C307   1.504   1_455  S
C302        C303   1.409       .  A
C303        C304   1.411       .  A
C303        C308   1.453   1_455  S
C304        C305   1.422       .  A
C304        C320   1.452       .  S
C305        C306   1.419       .  A
C306        C309   1.449       .  S
C307        C310   1.410       .  A
C307        C314   1.412       .  A
C308        N325   1.157       .  T
C309        N327   1.157       .  T
C310        C311   1.412       .  A
C310        C315   1.450       .  S
C311        C312   1.417       .  A
C311        C317   1.451       .  S
C312        C313   1.417       .  A
C313        C314   1.416       .  A
C313        C316   1.450       .  S
C314        C318   1.450       .  S
C315        N322   1.157       .  T
C316        N323   1.157       .  T
C317        N321   1.157       .  T
C318        N324   1.157       .  T
C319        N328   1.157       .  T
C320        N326   1.158       .  T
C329        C330   1.399       .  A
C329        C334   1.416       .  A
C329        C347   1.455       .  S
C330        C335   1.509       .  S
C330        C331   1.403       .  A
C331        C332   1.425       .  A
C331        C336   1.453       .  S
C332        C333   1.447       .  A
C332        C348   1.448       .  S
C333        C334   1.452       .  A
C334        C337   1.453       .  S
C335        C338   1.414       .  A
C335        C342   1.412       .  A
C336        N353   1.157       .  T
C337        N355   1.158       .  T
C338        C339   1.416       .  A
C338        C343   1.450       .  S
C339        C340   1.416       .  A
C339        C345   1.451       .  S
C340        C341   1.417       .  A
C341        C342   1.414       .  A
C341        C344   1.451       .  S
C342        C346   1.450       .  S
C343        N350   1.157       .  T
C344        N351   1.157       .  T
C345        N349   1.157       .  T
C346        N352   1.157       .  T
C347        N356   1.157       .  T
C348        N354   1.157       .  T
C357        C358   1.409       .  A
C357        C362   1.406       .  A
C357        C375   1.451       .  S
C358        C363   1.490       .  S
C358        C359   1.410       .  A
C359        C360   1.410       .  A
C359        C364   1.450       .  S
C360        C361   1.415       .  A
C360        C376   1.451       .  S
C361        C362   1.414       .  A
C362        C365   1.452       .  S
C363        C366   1.409       .  A
C363        C370   1.409       .  A
C364        N381   1.157       .  T
C365        N383   1.157       .  T
C366        C367   1.409       .  A
C366        C371   1.451       .  S
C367        C368   1.416       .  A
C367        C373   1.452       .  S
C368        C369   1.414       .  A
C369        C370   1.408       .  A
C369        C372   1.451       .  S
C370        C374   1.451       .  S
C371        N378   1.157       .  T
C372        N379   1.157       .  T
C373        N377   1.158       .  T
C374        N380   1.157       .  T
C375        N384   1.157       .  T
C376        N382   1.157       .  T
C385        C386   1.411       .  A
C385        C390   1.414       .  A
C385        C403   1.452       .  S
C386        C391   1.505       .  S
C386        C387   1.412       .  A
C387        C388   1.414       .  A
C387        C392   1.451       .  S
C388        C389   1.418       .  A
C388        C404   1.450       .  S
C389        C390   1.420       .  A
C390        C393   1.451       .  S
C391        C394   1.412       .  A
C391        C398   1.410       .  A
C392        N409   1.157       .  T
C393        N411   1.157       .  T
C394        C395   1.416       .  A
C394        C399   1.451       .  S
C395        C396   1.420       .  A
C395        C401   1.450       .  S
C396        C397   1.421       .  A
C397        C398   1.412       .  A
C397        C400   1.452       .  S
C398        C402   1.452       .  S
C399        N406   1.157       .  T
C400        N407   1.158       .  T
C401        N405   1.157       .  T
C402        N408   1.157       .  T
C403        N412   1.157       .  T
C404        N410   1.157       .  T
C413        C414   1.408       .  A
C413        C418   1.412       .  A
C413        C431   1.457       .  S
C414        C419   1.522       .  S
C414        C415   1.408       .  A
C415        C416   1.422       .  A
C415        C420   1.450       .  S
C416        C417   1.448       .  A
C416        C432   1.449       .  S
C417        C418   1.440       .  A
C418        C421   1.444       .  S
C419        C422   1.401       .  A
C419        C426   1.408       .  A
C420        N437   1.158       .  T
C421        N439   1.156       .  T
C422        C423   1.412       .  A
C422        C427   1.458       .  S
C423        C424   1.449       .  A
C423        C429   1.445       .  S
C424        C425   1.449       .  A
C425        C426   1.426       .  A
C425        C428   1.448       .  S
C426        C430   1.451       .  S
C427        N434   1.157       .  T
C428        N435   1.157       .  T
C429        N433   1.157       .  T
C430        N436   1.158       .  T
C431        N440   1.157       .  T
C432        N438   1.157       .  T
C441        C442   1.400       .  A
C441        C446   1.420       .  A
C441        C459   1.456       .  S
C442        C447   1.509       .  S
C442        C443   1.399       .  A
C443        C444   1.422       .  A
C443        C448   1.454       .  S
C444        C445   1.449       .  A
C444        C460   1.448       .  S
C445        C446   1.454       .  A
C446        C449   1.452       .  S
C447        C450   1.412       .  A
C447        C454   1.410       .  A
C448        N465   1.157       .  T
C449        N467   1.158       .  T
C450        C451   1.416       .  A
C450        C455   1.451       .  S
C451        C452   1.419       .  A
C451        C457   1.450       .  S
C452        C453   1.421       .  A
C453        C454   1.414       .  A
C453        C456   1.452       .  S
C454        C458   1.449       .  S
C455        N462   1.157       .  T
C456        N463   1.158       .  T
C457        N461   1.157       .  T
C458        N464   1.157       .  T
C459        N468   1.157       .  T
C460        N466   1.157       .  T
C469        C470   1.410       .  A
C469        C474   1.410       .  A
C469        C487   1.451       .  S
C470        C475   1.494       .  S
C470        C471   1.409       .  A
C471        C472   1.411       .  A
C471        C476   1.450       .  S
C472        C473   1.415       .  A
C472        C488   1.451       .  S
C473        C474   1.416       .  A
C474        C477   1.451       .  S
C475        C478   1.409       .  A
C475        C482   1.409       .  A
C476        N493   1.157       .  T
C477        N495   1.157       .  T
C478        C479   1.411       .  A
C478        C483   1.450       .  S
C479        C480   1.416       .  A
C479        C485   1.452       .  S
C480        C481   1.417       .  A
C481        C482   1.409       .  A
C481        C484   1.452       .  S
C482        C486   1.451       .  S
C483        N490   1.157       .  T
C484        N491   1.157       .  T
C485        N489   1.158       .  T
C486        N492   1.157       .  T
C487        N496   1.157       .  T
C488        N494   1.157       .  T
C497        C498   1.411       .  A
C497        C502   1.412       .  A
C497        C515   1.451       .  S
C498        C503   1.511       .  S
C498        C499   1.415       .  A
C499        C500   1.420       .  A
C499        C504   1.449       .  S
C500        C501   1.416       .  A
C500        C516   1.449       .  S
C501        C502   1.419       .  A
C502        C505   1.452       .  S
C503        C506   1.413   1_565  A
C503        C510   1.411   1_565  A
C504        N521   1.157       .  T
C505        N523   1.157       .  T
C506        C507   1.420       .  A
C506        C511   1.450       .  S
C507        C508   1.420       .  A
C507        C513   1.450       .  S
C508        C509   1.421       .  A
C509        C510   1.414       .  A
C509        C512   1.451       .  S
C510        C514   1.452   1_545  S
C511        N518   1.157       .  T
C512        N519   1.157       .  T
C513        N517   1.157       .  T
C514        N520   1.157       .  T
C515        N524   1.157       .  T
C516        N522   1.157       .  T
C525        C526   1.401       .  A
C525        C530   1.414       .  A
C525        C543   1.455       .  S
C526        C531   1.517       .  S
C526        C527   1.409       .  A
C527        C528   1.429       .  A
C527        C532   1.449       .  S
C528        C529   1.442       .  A
C528        C544   1.450       .  S
C529        C530   1.451       .  A
C530        C533   1.454       .  S
C531        C534   1.415       .  A
C531        C538   1.411       .  A
C532        N549   1.157       .  T
C533        N551   1.158       .  T
C534        C535   1.421       .  A
C534        C539   1.450       .  S
C535        C536   1.421       .  A
C535        C541   1.450       .  S
C536        C537   1.421       .  A
C537        C538   1.417       .  A
C537        C540   1.452       .  S
C538        C542   1.448       .  S
C539        N546   1.157       .  T
C540        N547   1.158       .  T
C541        N545   1.157       .  T
C542        N548   1.157       .  T
C543        N552   1.157       .  T
C544        N550   1.157       .  T
C553        C554   1.410       .  A
C553        C558   1.415       .  A
C553        C571   1.450       .  S
C554        C559   1.499       .  S
C554        C555   1.409       .  A
C555        C556   1.410       .  A
C555        C560   1.452       .  S
C556        C557   1.420       .  A
C556        C572   1.452       .  S
C557        C558   1.418       .  A
C558        C561   1.450       .  S
C559        C562   1.408       .  A
C559        C566   1.410       .  A
C560        N577   1.157       .  T
C561        N579   1.157       .  T
C562        C563   1.412       .  A
C562        C567   1.452       .  S
C563        C564   1.421       .  A
C563        C569   1.451       .  S
C564        C565   1.419       .  A
C565        C566   1.414       .  A
C565        C568   1.451       .  S
C566        C570   1.450       .  S
C567        N574   1.157       .  T
C568        N575   1.157       .  T
C569        N573   1.158       .  T
C570        N576   1.157       .  T
C571        N580   1.157       .  T
C572        N578   1.158       .  T
C581        C582   1.403       .  A
C581        C586   1.422       .  A
C581        C599   1.452       .  S
C582        C587   1.513       .  S
C582        C583   1.399       .  A
C583        C584   1.416       .  A
C583        C588   1.456       .  S
C584        C585   1.450       .  A
C584        C600   1.445       .  S
C585        C586   1.448       .  A
C586        C589   1.449       .  S
C587        C590   1.400       .  A
C587        C594   1.401       .  A
C588        N605   1.157       .  T
C589        N607   1.157       .  T
C590        C591   1.417       .  A
C590        C595   1.456       .  S
C591        C592   1.453       .  A
C591        C597   1.453       .  S
C592        C593   1.450       .  A
C593        C594   1.425       .  A
C593        C596   1.445       .  S
C594        C598   1.455       .  S
C595        N602   1.157       .  T
C596        N603   1.157       .  T
C597        N601   1.158       .  T
C598        N604   1.157       .  T
C599        N608   1.157       .  T
C600        N606   1.157       .  T
C609        C610   1.405       .  A
C609        C614   1.426       .  A
C609        C627   1.451       .  S
C610        C615   1.514       .  S
C610        C611   1.401       .  A
C611        C612   1.417       .  A
C611        C616   1.457       .  S
C612        C613   1.449       .  A
C612        C628   1.448       .  S
C613        C614   1.448       .  A
C614        C617   1.451       .  S
C615        C618   1.412       .  A
C615        C622   1.413       .  A
C616        N633   1.157       .  T
C617        N635   1.157       .  T
C618        C619   1.417       .  A
C618        C623   1.450       .  S
C619        C620   1.421       .  A
C619        C625   1.452       .  S
C620        C621   1.419       .  A
C621        C622   1.419       .  A
C621        C624   1.450       .  S
C622        C626   1.451       .  S
C623        N630   1.157       .  T
C624        N631   1.157       .  T
C625        N629   1.158       .  T
C626        N632   1.157       .  T
C627        N636   1.157       .  T
C628        N634   1.157       .  T
C637        C638   1.410       .  A
C637        C642   1.408       .  A
C637        C655   1.451       .  S
C638        C643   1.489       .  S
C638        C639   1.410       .  A
C639        C640   1.408       .  A
C639        C644   1.451       .  S
C640        C641   1.412       .  A
C640        C656   1.451       .  S
C641        C642   1.414       .  A
C642        C645   1.452       .  S
C643        C646   1.409       .  A
C643        C650   1.410       .  A
C644        N661   1.157       .  T
C645        N663   1.158       .  T
C646        C647   1.405       .  A
C646        C651   1.452       .  S
C647        C648   1.414       .  A
C647        C653   1.451       .  S
C648        C649   1.416       .  A
C649        C650   1.412       .  A
C649        C652   1.451       .  S
C650        C654   1.450       .  S
C651        N658   1.157       .  T
C652        N659   1.157       .  T
C653        N657   1.157       .  T
C654        N660   1.157       .  T
C655        N664   1.157       .  T
C656        N662   1.157       .  T
C665        C666   1.412       .  A
C665        C670   1.414       .  A
C665        C683   1.451       .  S
C666        C671   1.512   1_655  S
C666        C667   1.414       .  A
C667        C668   1.420       .  A
C667        C672   1.449       .  S
C668        C669   1.415       .  A
C668        C684   1.449       .  S
C669        C670   1.419       .  A
C670        C673   1.452       .  S
C671        C674   1.414       .  A
C671        C678   1.411       .  A
C672        N689   1.157   1_655  T
C673        N691   1.158       .  T
C674        C675   1.422       .  A
C674        C679   1.449       .  S
C675        C676   1.419       .  A
C675        C681   1.449       .  S
C676        C677   1.420       .  A
C677        C678   1.413       .  A
C677        C680   1.452       .  S
C678        C682   1.452       .  S
C679        N686   1.157       .  T
C680        N687   1.158       .  T
C681        N685   1.157       .  T
C682        N688   1.157   1_455  T
C683        N692   1.157   1_655  T
C684        N690   1.157       .  T
C693        C694   1.410       .  A
C693        C698   1.416       .  A
C693        C711   1.452       .  S
C694        C699   1.517       .  S
C694        C695   1.414       .  A
C695        C696   1.423       .  A
C695        C700   1.449       .  S
C696        C697   1.419       .  A
C696        C712   1.449       .  S
C697        C698   1.425       .  A
C698        C701   1.452       .  S
C699        C702   1.403       .  A
C699        C706   1.400       .  A
C700        N717   1.157       .  T
C701        N719   1.158       .  T
C702        C703   1.425       .  A
C702        C707   1.453       .  S
C703        C704   1.451       .  A
C703        C709   1.451       .  S
C704        C705   1.453       .  A
C705        C706   1.422       .  A
C705        C708   1.446       .  S
C706        C710   1.456       .  S
C707        N714   1.157       .  T
C708        N715   1.157       .  T
C709        N713   1.157       .  T
C710        N716   1.157       .  T
C711        N720   1.157       .  T
C712        N718   1.157       .  T
C721        C722   1.410       .  A
C721        C726   1.408       .  A
C721        C739   1.451       .  S
C722        C727   1.489       .  S
C722        C723   1.408       .  A
C723        C724   1.408       .  A
C723        C728   1.451       .  S
C724        C725   1.414       .  A
C724        C740   1.451       .  S
C725        C726   1.414       .  A
C726        C729   1.452       .  S
C727        C730   1.407       .  A
C727        C734   1.408       .  A
C728        N745   1.157       .  T
C729        N747   1.157       .  T
C730        C731   1.409       .  A
C730        C735   1.451       .  S
C731        C732   1.418       .  A
C731        C737   1.451       .  S
C732        C733   1.419       .  A
C733        C734   1.408       .  A
C733        C736   1.452       .  S
C734        C738   1.452       .  S
C735        N742   1.157       .  T
C736        N743   1.158       .  T
C737        N741   1.157       .  T
C738        N744   1.157       .  T
C739        N748   1.157       .  T
C740        N746   1.157       .  T
C749        C750   1.412       .  A
C749        C754   1.420       .  A
C749        C767   1.449       .  S
C750        C755   1.505   1_565  S
C750        C751   1.409       .  A
C751        C752   1.411       .  A
C751        C756   1.453       .  S
C752        C753   1.422       .  A
C752        C768   1.452       .  S
C753        C754   1.420       .  A
C754        C757   1.449       .  S
C755        C758   1.411       .  A
C755        C762   1.412       .  A
C756        N773   1.157       .  T
C757        N775   1.157       .  T
C758        C759   1.413       .  A
C758        C763   1.450   1_545  S
C759        C760   1.416       .  A
C759        C765   1.450       .  S
C760        C761   1.417       .  A
C761        C762   1.417       .  A
C761        C764   1.450       .  S
C762        C766   1.450       .  S
C763        N770   1.157       .  T
C764        N771   1.157       .  T
C765        N769   1.157       .  T
C766        N772   1.157   1_545  T
C767        N776   1.157       .  T
C768        N774   1.158       .  T
C777        C778   1.396       .  A
C777        C782   1.417       .  A
C777        C795   1.456       .  S
C778        C783   1.505       .  S
C778        C779   1.398       .  A
C779        C780   1.422       .  A
C779        C784   1.456       .  S
C780        C781   1.452       .  A
C780        C796   1.445       .  S
C781        C782   1.454       .  A
C782        C785   1.449       .  S
C783        C786   1.406       .  A
C783        C790   1.410       .  A
C784        N801   1.157       .  T
C785        N803   1.158       .  T
C786        C787   1.412       .  A
C786        C791   1.454       .  S
C787        C788   1.430       .  A
C787        C793   1.452       .  S
C788        C789   1.423       .  A
C789        C790   1.418       .  A
C789        C792   1.450       .  S
C790        C794   1.450       .  S
C791        N798   1.157       .  T
C792        N799   1.158       .  T
C793        N797   1.158       .  T
C794        N800   1.157       .  T
C795        N804   1.157       .  T
C796        N802   1.157       .  T
C805        C806   1.411       .  A
C805        C810   1.414       .  A
C805        C823   1.450       .  S
C806        C811   1.499       .  S
C806        C807   1.409       .  A
C807        C808   1.410       .  A
C807        C812   1.451       .  S
C808        C809   1.417       .  A
C808        C824   1.452       .  S
C809        C810   1.415       .  A
C810        C813   1.450       .  S
C811        C814   1.410       .  A
C811        C818   1.408       .  A
C812        N829   1.157       .  T
C813        N831   1.157       .  T
C814        C815   1.414       .  A
C814        C819   1.451       .  S
C815        C816   1.418       .  A
C815        C821   1.450       .  S
C816        C817   1.421       .  A
C817        C818   1.411       .  A
C817        C820   1.452       .  S
C818        C822   1.451       .  S
C819        N826   1.157       .  T
C820        N827   1.157       .  T
C821        N825   1.157       .  T
C822        N828   1.157       .  T
C823        N832   1.157       .  T
C824        N830   1.157       .  T
C833        C834   1.411       .  A
C833        C838   1.414       .  A
C833        C851   1.450       .  S
C834        C839   1.499       .  S
C834        C835   1.410       .  A
C835        C836   1.410       .  A
C835        C840   1.451       .  S
C836        C837   1.416       .  A
C836        C852   1.452       .  S
C837        C838   1.415       .  A
C838        C841   1.450       .  S
C839        C842   1.409       .  A
C839        C846   1.411       .  A
C840        N857   1.157       .  T
C841        N859   1.157       .  T
C842        C843   1.411       .  A
C842        C847   1.451       .  S
C843        C844   1.417       .  A
C843        C849   1.451       .  S
C844        C845   1.415       .  A
C845        C846   1.413       .  A
C845        C848   1.451       .  S
C846        C850   1.450       .  S
C847        N854   1.157       .  T
C848        N855   1.157       .  T
C849        N853   1.157       .  T
C850        N856   1.157       .  T
C851        N860   1.157       .  T
C852        N858   1.157       .  T
C861        C862   1.404       .  A
C861        C866   1.420       .  A
C861        C879   1.455       .  S
C862        C867   1.515       .  S
C862        C863   1.401       .  A
C863        C864   1.420       .  A
C863        C868   1.456       .  S
C864        C865   1.453       .  A
C864        C880   1.451       .  S
C865        C866   1.448       .  A
C866        C869   1.449       .  S
C867        C870   1.404       .  A
C867        C874   1.403       .  A
C868        N885   1.157       .  T
C869        N887   1.157       .  T
C870        C871   1.417       .  A
C870        C875   1.457       .  S
C871        C872   1.448       .  A
C871        C877   1.447       .  S
C872        C873   1.451       .  A
C873        C874   1.423       .  A
C873        C876   1.450       .  S
C874        C878   1.454       .  S
C875        N882   1.157       .  T
C876        N883   1.158       .  T
C877        N881   1.158       .  T
C878        N884   1.157       .  T
C879        N888   1.157       .  T
C880        N886   1.158       .  T
C889        C890   1.398       .  A
C889        C894   1.418       .  A
C889        C907   1.456       .  S
C890        C895   1.506       .  S
C890        C891   1.399       .  A
C891        C892   1.421       .  A
C891        C896   1.454       .  S
C892        C893   1.450       .  A
C892        C908   1.448       .  S
C893        C894   1.454       .  A
C894        C897   1.448       .  S
C895        C898   1.413       .  A
C895        C902   1.410       .  A
C896        N913   1.157       .  T
C897        N915   1.157       .  T
C898        C899   1.416       .  A
C898        C903   1.450       .  S
C899        C900   1.415       .  A
C899        C905   1.450       .  S
C900        C901   1.416       .  A
C901        C902   1.413       .  A
C901        C904   1.451       .  S
C902        C906   1.450       .  S
C903        N910   1.157       .  T
C904        N911   1.157       .  T
C905        N909   1.157       .  T
C906        N912   1.157       .  T
C907        N916   1.157       .  T
C908        N914   1.157       .  T
C917        C918   1.410       .  A
C917        C922   1.412       .  A
C917        C935   1.452       .  S
C918        C923   1.506   1_565  S
C918        C919   1.412       .  A
C919        C920   1.419       .  A
C919        C924   1.450       .  S
C920        C921   1.418       .  A
C920        C936   1.449       .  S
C921        C922   1.420       .  A
C922        C925   1.452       .  S
C923        C926   1.410       .  A
C923        C930   1.413       .  A
C924        N941   1.157       .  T
C925        N943   1.157       .  T
C926        C927   1.412       .  A
C926        C931   1.451   1_545  S
C927        C928   1.418       .  A
C927        C933   1.452       .  S
C928        C929   1.418       .  A
C929        C930   1.418       .  A
C929        C932   1.450       .  S
C930        C934   1.450       .  S
C931        N938   1.157       .  T
C932        N939   1.157       .  T
C933        N937   1.157       .  T
C934        N940   1.157       .  T
C935        N944   1.157   1_565  T
C936        N942   1.157       .  T
C945        C946   1.414       .  A
C945        C950   1.420       .  A
C945        C963   1.449       .  S
C946        C951   1.513       .  S
C946        C947   1.410       .  A
C947        C948   1.414       .  A
C947        C952   1.452       .  S
C948        C949   1.423       .  A
C948        C964   1.452       .  S
C949        C950   1.417       .  A
C950        C953   1.449       .  S
C951        C954   1.402       .  A
C951        C958   1.399       .  A
C952        N969   1.157       .  T
C953        N971   1.157       .  T
C954        C955   1.424       .  A
C954        C959   1.455       .  S
C955        C956   1.451       .  A
C955        C961   1.447       .  S
C956        C957   1.451       .  A
C957        C958   1.419       .  A
C957        C960   1.450       .  S
C958        C962   1.454       .  S
C959        N966   1.157       .  T
C960        N967   1.157       .  T
C961        N965   1.158       .  T
C962        N968   1.157       .  T
C963        N972   1.157       .  T
C964        N970   1.158       .  T
C973        C974   1.409       .  A
C973        C978   1.409       .  A
C973        C991   1.451       .  S
C974        C979   1.493       .  S
C974        C975   1.410       .  A
C975        C976   1.410       .  A
C975        C980   1.451       .  S
C976        C977   1.414       .  A
C976        C992   1.450       .  S
C977        C978   1.415       .  A
C978        C981   1.452       .  S
C979        C982   1.408       .  A
C979        C986   1.407       .  A
C980        N997   1.157       .  T
C981        N999   1.157       .  T
C982        C983   1.409       .  A
C982        C987   1.452       .  S
C983        C984   1.419       .  A
C983        C989   1.451       .  S
C984        C985   1.421       .  A
C985        C986   1.412       .  A
C985        C988   1.451       .  S
C986        C990   1.451       .  S
C987        N994   1.157       .  T
C988        N995   1.157       .  T
C989        N993   1.157       .  T
C990        N996   1.157       .  T
C991       N1000   1.157       .  T
C992        N998   1.157       .  T
C1001      C1002   1.412       .  A
C1001      C1006   1.414       .  A
C1001      C1019   1.450       .  S
C1002      C1007   1.498       .  S
C1002      C1003   1.409       .  A
C1003      C1004   1.410       .  A
C1003      C1008   1.450       .  S
C1004      C1005   1.415       .  A
C1004      C1020   1.451       .  S
C1005      C1006   1.415       .  A
C1006      C1009   1.450       .  S
C1007      C1010   1.411       .  A
C1007      C1014   1.411       .  A
C1008      N1025   1.157       .  T
C1009      N1027   1.157       .  T
C1010      C1011   1.415       .  A
C1010      C1015   1.450       .  S
C1011      C1012   1.415       .  A
C1011      C1017   1.450       .  S
C1012      C1013   1.413       .  A
C1013      C1014   1.410       .  A
C1013      C1016   1.452       .  S
C1014      C1018   1.451       .  S
C1015      N1022   1.157       .  T
C1016      N1023   1.157       .  T
C1017      N1021   1.157       .  T
C1018      N1024   1.157       .  T
C1019      N1028   1.157       .  T
C1020      N1026   1.157       .  T
C1029      C1030   1.411       .  A
C1029      C1034   1.416       .  A
C1029      C1047   1.453       .  S
C1030      C1035   1.525       .  S
C1030      C1031   1.407       .  A
C1031      C1032   1.419       .  A
C1031      C1036   1.454       .  S
C1032      C1033   1.447       .  A
C1032      C1048   1.443       .  S
C1033      C1034   1.446       .  A
C1034      C1037   1.452       .  S
C1035      C1038   1.408   1_556  A
C1035      C1042   1.412   1_556  A
C1036      N1053   1.157       .  T
C1037      N1055   1.157       .  T
C1038      C1039   1.421       .  A
C1038      C1043   1.454   1_554  S
C1039      C1040   1.450       .  A
C1039      C1045   1.448       .  S
C1040      C1041   1.440       .  A
C1041      C1042   1.416       .  A
C1041      C1044   1.447       .  S
C1042      C1046   1.452   1_554  S
C1043      N1050   1.157       .  T
C1044      N1051   1.158       .  T
C1045      N1049   1.157       .  T
C1046      N1052   1.157       .  T
C1047      N1056   1.158       .  T
C1048      N1054   1.157       .  T
C1057      C1058   1.412       .  A
C1057      C1062   1.417       .  A
C1057      C1075   1.450       .  S
C1058      C1063   1.510       .  S
C1058      C1059   1.411       .  A
C1059      C1060   1.415       .  A
C1059      C1064   1.451       .  S
C1060      C1061   1.420       .  A
C1060      C1076   1.451       .  S
C1061      C1062   1.418       .  A
C1062      C1065   1.450       .  S
C1063      C1066   1.400       .  A
C1063      C1070   1.404       .  A
C1064      N1081   1.157       .  T
C1065      N1083   1.157       .  T
C1066      C1067   1.413       .  A
C1066      C1071   1.456       .  S
C1067      C1068   1.451       .  A
C1067      C1073   1.453       .  S
C1068      C1069   1.447       .  A
C1069      C1070   1.425       .  A
C1069      C1072   1.450       .  S
C1070      C1074   1.452       .  S
C1071      N1078   1.157       .  T
C1072      N1079   1.157       .  T
C1073      N1077   1.158       .  T
C1074      N1080   1.157       .  T
C1075      N1084   1.157       .  T
C1076      N1082   1.157       .  T
C1085      C1086   1.409       .  A
C1085      C1090   1.409       .  A
C1085      C1103   1.451       .  S
C1086      C1091   1.490       .  S
C1086      C1087   1.408       .  A
C1087      C1088   1.408       .  A
C1087      C1092   1.451       .  S
C1088      C1089   1.417       .  A
C1088      C1104   1.452       .  S
C1089      C1090   1.416       .  A
C1090      C1093   1.452       .  S
C1091      C1094   1.409       .  A
C1091      C1098   1.408       .  A
C1092      N1109   1.157       .  T
C1093      N1111   1.158       .  T
C1094      C1095   1.411       .  A
C1094      C1099   1.451       .  S
C1095      C1096   1.417       .  A
C1095      C1101   1.451       .  S
C1096      C1097   1.416       .  A
C1097      C1098   1.407       .  A
C1097      C1100   1.452       .  S
C1098      C1102   1.452       .  S
C1099      N1106   1.157       .  T
C1100      N1107   1.157       .  T
C1101      N1105   1.158       .  T
C1102      N1108   1.157       .  T
C1103      N1112   1.157       .  T
C1104      N1110   1.157       .  T
C1113      C1114   1.411       .  A
C1113      C1118   1.414       .  A
C1113      C1131   1.452   1_455  S
C1114      C1119   1.509   1_455  S
C1114      C1115   1.412       .  A
C1115      C1116   1.420       .  A
C1115      C1120   1.449       .  S
C1116      C1117   1.419       .  A
C1116      C1132   1.449       .  S
C1117      C1118   1.421       .  A
C1118      C1121   1.452       .  S
C1119      C1122   1.412       .  A
C1119      C1126   1.410       .  A
C1120      N1137   1.157       .  T
C1121      N1139   1.157       .  T
C1122      C1123   1.419       .  A
C1122      C1127   1.449       .  S
C1123      C1124   1.419       .  A
C1123      C1129   1.450       .  S
C1124      C1125   1.421       .  A
C1125      C1126   1.413       .  A
C1125      C1128   1.452       .  S
C1126      C1130   1.451       .  S
C1127      N1134   1.157       .  T
C1128      N1135   1.158       .  T
C1129      N1133   1.157       .  T
C1130      N1136   1.157       .  T
C1131      N1140   1.157       .  T
C1132      N1138   1.157       .  T
C1141      C1142   1.401       .  A
C1141      C1146   1.420       .  A
C1141      C1159   1.455       .  S
C1142      C1147   1.515       .  S
C1142      C1143   1.404       .  A
C1143      C1144   1.424       .  A
C1143      C1148   1.454       .  S
C1144      C1145   1.448       .  A
C1144      C1160   1.449       .  S
C1145      C1146   1.453       .  A
C1146      C1149   1.451       .  S
C1147      C1150   1.415       .  A
C1147      C1154   1.415       .  A
C1148      N1165   1.157       .  T
C1149      N1167   1.158       .  T
C1150      C1151   1.414       .  A
C1150      C1155   1.451       .  S
C1151      C1152   1.416       .  A
C1151      C1157   1.452       .  S
C1152      C1153   1.415       .  A
C1153      C1154   1.419       .  A
C1153      C1156   1.450       .  S
C1154      C1158   1.450       .  S
C1155      N1162   1.157       .  T
C1156      N1163   1.157       .  T
C1157      N1161   1.157       .  T
C1158      N1164   1.157       .  T
C1159      N1168   1.157       .  T
C1160      N1166   1.157       .  T
C1169      C1170   1.411       .  A
C1169      C1174   1.410       .  A
C1169      C1187   1.452       .  S
C1170      C1175   1.498       .  S
C1170      C1171   1.410       .  A
C1171      C1172   1.413       .  A
C1171      C1176   1.450       .  S
C1172      C1173   1.416       .  A
C1172      C1188   1.451       .  S
C1173      C1174   1.416       .  A
C1174      C1177   1.452       .  S
C1175      C1178   1.410       .  A
C1175      C1182   1.411       .  A
C1176      N1193   1.157       .  T
C1177      N1195   1.157       .  T
C1178      C1179   1.411       .  A
C1178      C1183   1.451       .  S
C1179      C1180   1.416       .  A
C1179      C1185   1.451       .  S
C1180      C1181   1.414       .  A
C1181      C1182   1.412       .  A
C1181      C1184   1.450       .  S
C1182      C1186   1.450       .  S
C1183      N1190   1.157       .  T
C1184      N1191   1.157       .  T
C1185      N1189   1.157       .  T
C1186      N1192   1.157       .  T
C1187      N1196   1.157       .  T
C1188      N1194   1.157       .  T
C1197      C1198   1.413       .  A
C1197      C1202   1.426       .  A
C1197      C1215   1.452       .  S
C1198      C1203   1.532       .  S
C1198      C1199   1.411       .  A
C1199      C1200   1.415       .  A
C1199      C1204   1.454       .  S
C1200      C1201   1.448       .  A
C1200      C1216   1.452       .  S
C1201      C1202   1.446       .  A
C1202      C1205   1.444       .  S
C1203      C1206   1.412       .  A
C1203      C1210   1.411       .  A
C1204      N1221   1.158       .  T
C1205      N1223   1.158       .  T
C1206      C1207   1.416       .  A
C1206      C1211   1.449       .  S
C1207      C1208   1.438       .  A
C1207      C1213   1.445       .  S
C1208      C1209   1.451       .  A
C1209      C1210   1.425       .  A
C1209      C1212   1.446       .  S
C1210      C1214   1.455       .  S
C1211      N1218   1.157       .  T
C1212      N1219   1.158       .  T
C1213      N1217   1.157       .  T
C1214      N1220   1.157       .  T
C1215      N1224   1.157       .  T
C1216      N1222   1.157       .  T
C1225      C1226   1.401       .  A
C1225      C1230   1.417       .  A
C1225      C1243   1.456       .  S
C1226      C1231   1.511       .  S
C1226      C1227   1.401       .  A
C1227      C1228   1.420       .  A
C1227      C1232   1.454       .  S
C1228      C1229   1.452       .  A
C1228      C1244   1.450       .  S
C1229      C1230   1.449       .  A
C1230      C1233   1.446       .  S
C1231      C1234   1.403       .  A
C1231      C1238   1.401       .  A
C1232      N1249   1.157       .  T
C1233      N1251   1.158       .  T
C1234      C1235   1.422       .  A
C1234      C1239   1.456       .  S
C1235      C1236   1.449       .  A
C1235      C1241   1.446       .  S
C1236      C1237   1.450       .  A
C1237      C1238   1.415       .  A
C1237      C1240   1.453       .  S
C1238      C1242   1.455       .  S
C1239      N1246   1.157       .  T
C1240      N1247   1.157       .  T
C1241      N1245   1.158       .  T
C1242      N1248   1.157       .  T
C1243      N1252   1.157       .  T
C1244      N1250   1.157       .  T
C1253      C1254   1.401       .  A
C1253      C1258   1.420       .  A
C1253      C1271   1.456       .  S
C1254      C1259   1.517       .  S
C1254      C1255   1.405       .  A
C1255      C1256   1.425       .  A
C1255      C1260   1.454       .  S
C1256      C1257   1.447       .  A
C1256      C1272   1.448       .  S
C1257      C1258   1.454       .  A
C1258      C1261   1.452       .  S
C1259      C1262   1.416       .  A
C1259      C1266   1.415       .  A
C1260      N1277   1.157       .  T
C1261      N1279   1.158       .  T
C1262      C1263   1.415       .  A
C1262      C1267   1.451       .  S
C1263      C1264   1.416       .  A
C1263      C1269   1.451       .  S
C1264      C1265   1.415       .  A
C1265      C1266   1.418       .  A
C1265      C1268   1.449       .  S
C1266      C1270   1.450       .  S
C1267      N1274   1.157       .  T
C1268      N1275   1.157       .  T
C1269      N1273   1.157       .  T
C1270      N1276   1.157       .  T
C1271      N1280   1.157       .  T
C1272      N1278   1.157       .  T
C1281      C1282   1.404       .  A
C1281      C1286   1.423       .  A
C1281      C1299   1.453       .  S
C1282      C1287   1.510       .  S
C1282      C1283   1.398       .  A
C1283      C1284   1.414       .  A
C1283      C1288   1.459       .  S
C1284      C1285   1.454       .  A
C1284      C1300   1.449       .  S
C1285      C1286   1.446       .  A
C1286      C1289   1.449       .  S
C1287      C1290   1.401   1_556  A
C1287      C1294   1.401   1_556  A
C1288      N1305   1.157       .  T
C1289      N1307   1.157       .  T
C1290      C1291   1.414       .  A
C1290      C1295   1.456   1_554  S
C1291      C1292   1.450       .  A
C1291      C1297   1.452       .  S
C1292      C1293   1.449       .  A
C1293      C1294   1.423       .  A
C1293      C1296   1.442       .  S
C1294      C1298   1.457   1_554  S
C1295      N1302   1.157       .  T
C1296      N1303   1.157       .  T
C1297      N1301   1.157       .  T
C1298      N1304   1.157       .  T
C1299      N1308   1.157       .  T
C1300      N1306   1.156       .  T
C1309      C1310   1.401       .  A
C1309      C1314   1.425       .  A
C1309      C1327   1.455       .  S
C1310      C1315   1.516       .  S
C1310      C1311   1.402       .  A
C1311      C1312   1.420       .  A
C1311      C1316   1.456       .  S
C1312      C1313   1.451       .  A
C1312      C1328   1.449       .  S
C1313      C1314   1.452       .  A
C1314      C1317   1.445       .  S
C1315      C1318   1.403       .  A
C1315      C1322   1.402       .  A
C1316      N1333   1.157       .  T
C1317      N1335   1.157       .  T
C1318      C1319   1.418       .  A
C1318      C1323   1.453       .  S
C1319      C1320   1.451       .  A
C1319      C1325   1.454       .  S
C1320      C1321   1.450       .  A
C1321      C1322   1.422       .  A
C1321      C1324   1.444       .  S
C1322      C1326   1.457       .  S
C1323      N1330   1.157       .  T
C1324      N1331   1.157       .  T
C1325      N1329   1.157       .  T
C1326      N1332   1.157       .  T
C1327      N1336   1.157       .  T
C1328      N1334   1.157       .  T
C1337      C1338   1.400       .  A
C1337      C1342   1.421       .  A
C1337      C1355   1.456       .  S
C1338      C1343   1.513       .  S
C1338      C1339   1.400       .  A
C1339      C1340   1.423       .  A
C1339      C1344   1.455       .  S
C1340      C1341   1.455       .  A
C1340      C1356   1.450       .  S
C1341      C1342   1.451       .  A
C1342      C1345   1.447       .  S
C1343      C1346   1.411       .  A
C1343      C1350   1.414       .  A
C1344      N1361   1.157       .  T
C1345      N1363   1.157       .  T
C1346      C1347   1.414       .  A
C1346      C1351   1.452       .  S
C1347      C1348   1.424       .  A
C1347      C1353   1.452       .  S
C1348      C1349   1.419       .  A
C1349      C1350   1.418       .  A
C1349      C1352   1.450       .  S
C1350      C1354   1.450       .  S
C1351      N1358   1.157       .  T
C1352      N1359   1.158       .  T
C1353      N1357   1.158       .  T
C1354      N1360   1.157       .  T
C1355      N1364   1.157       .  T
C1356      N1362   1.158       .  T
C1365      C1366   1.407       .  A
C1365      C1370   1.411       .  A
C1365      C1383   1.451       .  S
C1366      C1371   1.491       .  S
C1366      C1367   1.408       .  A
C1367      C1368   1.408       .  A
C1367      C1372   1.452       .  S
C1368      C1369   1.418       .  A
C1368      C1384   1.452       .  S
C1369      C1370   1.420       .  A
C1370      C1373   1.451       .  S
C1371      C1374   1.410       .  A
C1371      C1378   1.410       .  A
C1372      N1389   1.157       .  T
C1373      N1391   1.158       .  T
C1374      C1375   1.409       .  A
C1374      C1379   1.450       .  S
C1375      C1376   1.413       .  A
C1375      C1381   1.451       .  S
C1376      C1377   1.414       .  A
C1377      C1378   1.408       .  A
C1377      C1380   1.452       .  S
C1378      C1382   1.451       .  S
C1379      N1386   1.157       .  T
C1380      N1387   1.157       .  T
C1381      N1385   1.157       .  T
C1382      N1388   1.157       .  T
C1383      N1392   1.157       .  T
C1384      N1390   1.157       .  T
C1393      C1394   1.414       .  A
C1393      C1398   1.415       .  A
C1393      C1411   1.450       .  S
C1394      C1399   1.505   1_545  S
C1394      C1395   1.412       .  A
C1395      C1396   1.412       .  A
C1395      C1400   1.451       .  S
C1396      C1397   1.415       .  A
C1396      C1412   1.452       .  S
C1397      C1398   1.413       .  A
C1398      C1401   1.450       .  S
C1399      C1402   1.410       .  A
C1399      C1406   1.413       .  A
C1400      N1417   1.157   1_545  T
C1401      N1419   1.157       .  T
C1402      C1403   1.410       .  A
C1402      C1407   1.452       .  S
C1403      C1404   1.420       .  A
C1403      C1409   1.452       .  S
C1404      C1405   1.417       .  A
C1405      C1406   1.419       .  A
C1405      C1408   1.449       .  S
C1406      C1410   1.450       .  S
C1407      N1414   1.157       .  T
C1408      N1415   1.157       .  T
C1409      N1413   1.157       .  T
C1410      N1416   1.157       .  T
C1411      N1420   1.157       .  T
C1412      N1418   1.157       .  T
C1421      C1422   1.412       .  A
C1421      C1426   1.416       .  A
C1421      C1439   1.450       .  S
C1422      C1427   1.513       .  S
C1422      C1423   1.414       .  A
C1423      C1424   1.418       .  A
C1423      C1428   1.450       .  S
C1424      C1425   1.417       .  A
C1424      C1440   1.450       .  S
C1425      C1426   1.417       .  A
C1426      C1429   1.451       .  S
C1427      C1430   1.403       .  A
C1427      C1434   1.399       .  A
C1428      N1445   1.157       .  T
C1429      N1447   1.157       .  T
C1430      C1431   1.426       .  A
C1430      C1435   1.452       .  S
C1431      C1432   1.444       .  A
C1431      C1437   1.449       .  S
C1432      C1433   1.458       .  A
C1433      C1434   1.418       .  A
C1433      C1436   1.455       .  S
C1434      C1438   1.457       .  S
C1435      N1442   1.157       .  T
C1436      N1443   1.158       .  T
C1437      N1441   1.157       .  T
C1438      N1444   1.157       .  T
C1439      N1448   1.157       .  T
C1440      N1446   1.157       .  T
C1449      C1450   1.407       .  A
C1449      C1454   1.408       .  A
C1449      C1467   1.451       .  S
C1450      C1455   1.489       .  S
C1450      C1451   1.407       .  A
C1451      C1452   1.410       .  A
C1451      C1456   1.452       .  S
C1452      C1453   1.421       .  A
C1452      C1468   1.451       .  S
C1453      C1454   1.419       .  A
C1454      C1457   1.451       .  S
C1455      C1458   1.411       .  A
C1455      C1462   1.409       .  A
C1456      N1473   1.157       .  T
C1457      N1475   1.157       .  T
C1458      C1459   1.407       .  A
C1458      C1463   1.451       .  S
C1459      C1460   1.411       .  A
C1459      C1465   1.451       .  S
C1460      C1461   1.413       .  A
C1461      C1462   1.409       .  A
C1461      C1464   1.451       .  S
C1462      C1466   1.450       .  S
C1463      N1470   1.157       .  T
C1464      N1471   1.157       .  T
C1465      N1469   1.157       .  T
C1466      N1472   1.157       .  T
C1467      N1476   1.157       .  T
C1468      N1474   1.158       .  T
C1477      C1478   1.411       .  A
C1477      C1482   1.416       .  A
C1477      C1495   1.451       .  S
C1478      C1483   1.511   1_455  S
C1478      C1479   1.413       .  A
C1479      C1480   1.418       .  A
C1479      C1484   1.451       .  S
C1480      C1481   1.420       .  A
C1480      C1496   1.450       .  S
C1481      C1482   1.423       .  A
C1482      C1485   1.451       .  S
C1483      C1486   1.412       .  A
C1483      C1490   1.415       .  A
C1484      N1501   1.157   1_455  T
C1485      N1503   1.157       .  T
C1486      C1487   1.411       .  A
C1486      C1491   1.452       .  S
C1487      C1488   1.420       .  A
C1487      C1493   1.452       .  S
C1488      C1489   1.417       .  A
C1489      C1490   1.420       .  A
C1489      C1492   1.450       .  S
C1490      C1494   1.449       .  S
C1491      N1498   1.157       .  T
C1492      N1499   1.157       .  T
C1493      N1497   1.157       .  T
C1494      N1500   1.157       .  T
C1495      N1504   1.157   1_455  T
C1496      N1502   1.157       .  T
C1505      C1506   1.415       .  A
C1505      C1510   1.422       .  A
C1505      C1523   1.449       .  S
C1506      C1511   1.516       .  S
C1506      C1507   1.411       .  A
C1507      C1508   1.415       .  A
C1507      C1512   1.451       .  S
C1508      C1509   1.420       .  A
C1508      C1524   1.451       .  S
C1509      C1510   1.417       .  A
C1510      C1513   1.449       .  S
C1511      C1514   1.399       .  A
C1511      C1518   1.401       .  A
C1512      N1529   1.157       .  T
C1513      N1531   1.157       .  T
C1514      C1515   1.425       .  A
C1514      C1519   1.456       .  S
C1515      C1516   1.455       .  A
C1515      C1521   1.446       .  S
C1516      C1517   1.451       .  A
C1517      C1518   1.423       .  A
C1517      C1520   1.450       .  S
C1518      C1522   1.454       .  S
C1519      N1526   1.157       .  T
C1520      N1527   1.157       .  T
C1521      N1525   1.158       .  T
C1522      N1528   1.157       .  T
C1523      N1532   1.157       .  T
C1524      N1530   1.157       .  T
C1533      C1534   1.409       .  A
C1533      C1538   1.413       .  A
C1533      C1551   1.451       .  S
C1534      C1539   1.504       .  S
C1534      C1535   1.411       .  A
C1535      C1536   1.416       .  A
C1535      C1540   1.450       .  S
C1536      C1537   1.419       .  A
C1536      C1552   1.450       .  S
C1537      C1538   1.421       .  A
C1538      C1541   1.451       .  S
C1539      C1542   1.412       .  A
C1539      C1546   1.411       .  A
C1540      N1557   1.157       .  T
C1541      N1559   1.157       .  T
C1542      C1543   1.417       .  A
C1542      C1547   1.449       .  S
C1543      C1544   1.416       .  A
C1543      C1549   1.450       .  S
C1544      C1545   1.415       .  A
C1545      C1546   1.411       .  A
C1545      C1548   1.451       .  S
C1546      C1550   1.451       .  S
C1547      N1554   1.157       .  T
C1548      N1555   1.157       .  T
C1549      N1553   1.157       .  T
C1550      N1556   1.157       .  T
C1551      N1560   1.157       .  T
C1552      N1558   1.157       .  T
