geometry optimzed in LAMMPS
_audit_creation_date              2020-11-30 
_audit_creation_method            'lammps2cif' 
_symmetry_space_group_name_H-M    'P1' 
_symmetry_Int_Tables_number       1 
_symmetry_cell_setting            triclinic 
loop_ 
_symmetry_equiv_pos_as_xyz 
  x,y,z 
_cell_length_a                    35.22457784 
_cell_length_b                    34.56736716263391 
_cell_length_c                    34.46670381029122 
_cell_angle_alpha                 89.75075722372065 
_cell_angle_beta                  87.88611628594096 
_cell_angle_gamma                 88.61140577874527 
loop_ 
_atom_site_label 
_atom_site_type_symbol 
_atom_site_fract_x 
_atom_site_fract_y 
_atom_site_fract_z 
_atom_site_charge 
O1          O  0.97285772  0.47826395  0.91340916    -0.76700
C2          C  0.00432889  0.38857167  0.99686427     0.84400
O3          O  0.91022517  0.52115038  0.02682623    -0.77800
O4          O  0.02648790  0.47499569  0.08573061    -0.79300
O5          O  0.08892932  0.52357476  0.96990356    -0.79100
O6          O  0.01753919  0.52285980  0.90724950    -0.77700
Zn7        Zn  0.96808489  0.46480908  0.96945520     1.55700
O8          O  0.09119938  0.47694755  0.01457848    -0.79100
Cd9        Cd  0.03104377  0.53289943  0.96361243     1.59700
Cd10       Cd  0.96733690  0.53169959  0.03303919     1.59600
O11         O  0.01915131  0.59105115  0.97492773    -0.79100
O12         O  0.00017324  0.49812311  0.99808987    -1.89600
Cd13       Cd  0.03530056  0.46415839  0.02780918     1.59900
O14         O  0.97581215  0.59007522  0.02349795    -0.79000
O15         O  0.02737491  0.40544142  0.01848406    -0.77700
C16         C  0.89402047  0.49575312  0.00695904     0.84800
C17         C  0.99307823  0.50107932  0.89282939     0.84500
O18         O  0.98123204  0.40818589  0.97658619    -0.76600
C19         C  0.10768546  0.50091719  0.99180069     0.85300
O20         O  0.91303324  0.47222041  0.98514525    -0.76700
C21         C  0.99705439  0.60856555  0.99955692     0.85400
C22         C  0.00458548  0.49796691  0.10533927     0.85800
O23         O  0.98077039  0.52058265  0.08927516    -0.79200
O24         O  0.02696574  0.58791646  0.52243947    -0.76700
C25         C  0.98506503  0.50202159  0.60597525     0.84400
O26         O  0.09237186  0.47039269  0.48580436    -0.77800
O27         O  0.97470095  0.40780781  0.52040860    -0.79300
O28         O  0.91361530  0.53047778  0.47627614    -0.79100
O29         O  0.98579155  0.59156383  0.47538615    -0.77700
Zn30       Zn  0.03095247  0.53064910  0.53529787     1.55700
O31         O  0.90859903  0.47898727  0.51452872    -0.79100
Cd32       Cd  0.97177798  0.53481245  0.46768184     1.59700
Cd33       Cd  0.03675844  0.46469485  0.47035490     1.59600
O34         O  0.98431655  0.52111873  0.41128481    -0.79100
O35         O  0.00149510  0.49947658  0.50128040    -1.89600
Cd36       Cd  0.96393989  0.46636454  0.52937459     1.59900
O37         O  0.03280355  0.47807214  0.41262997    -0.79000
O38         O  0.96593151  0.47821505  0.58710830    -0.77700
C39         C  0.10718656  0.49196958  0.51067054     0.84800
C40         C  0.00812339  0.60774129  0.49817037     0.84500
O41         O  0.01018902  0.52318094  0.58962551    -0.76600
C42         C  0.89337088  0.50593420  0.49464568     0.85300
O43         O  0.08709763  0.51557545  0.53162169    -0.76700
C44         C  0.00947735  0.49947510  0.39445497     0.85400
C45         C  0.99869764  0.38937462  0.49843624     0.85800
O46         O  0.02340235  0.40700225  0.47750532    -0.79200
O47         O  0.52677987  0.58393468  0.02859010    -0.76700
C48         C  0.49587945  0.49567188  0.11032478     0.84400
O49         O  0.59166123  0.46683722  0.98173415    -0.77800
O50         O  0.47609725  0.40356294  0.02975402    -0.79300
O51         O  0.41312740  0.52466641  0.98267458    -0.79100
O52         O  0.48258647  0.58831088  0.98462156    -0.77700
Zn53       Zn  0.53380767  0.52590732  0.03655717     1.55700
O54         O  0.40879180  0.47378024  0.02218193    -0.79100
Cd55       Cd  0.47077148  0.53128560  0.97472048     1.59700
Cd56       Cd  0.53437523  0.45921720  0.97341601     1.59600
O57         O  0.48299188  0.51995533  0.91805277    -0.79100
O58         O  0.50139674  0.49481223  0.00597026    -1.89600
Cd59       Cd  0.46491451  0.46244912  0.03687787     1.59900
O60         O  0.52453593  0.47017473  0.91649490    -0.79000
O61         O  0.47156643  0.47494881  0.09420784    -0.77700
C62         C  0.60818476  0.48917833  0.00468457     0.84800
C63         C  0.50558614  0.60423315  0.00685706     0.84500
O64         O  0.52055588  0.51481287  0.09110108    -0.76600
C65         C  0.39341324  0.49976030  0.00106066     0.85300
O66         O  0.58925305  0.51240306  0.02696854    -0.76700
C67         C  0.50388105  0.49527339  0.89958870     0.85400
C68         C  0.49927750  0.38478514  0.00719042     0.85800
O69         O  0.52256657  0.40185859  0.98416510    -0.79200
O70         O  0.51686093  0.59423796  0.52686627    -0.76700
C71         C  0.50095087  0.50320885  0.61155391     0.84400
O72         O  0.59194647  0.48657676  0.47813128    -0.77800
O73         O  0.48502118  0.41097856  0.52874528    -0.79300
O74         O  0.40817077  0.52063968  0.48654476    -0.79100
O75         O  0.47059992  0.59416123  0.48489403    -0.77700
Zn76       Zn  0.53097311  0.53821054  0.53616897     1.55700
O77         O  0.41255486  0.47416626  0.53103531    -0.79100
Cd78       Cd  0.46448059  0.53552831  0.47524949     1.59700
Cd79       Cd  0.53610224  0.47140298  0.47264582     1.59600
O80         O  0.47703848  0.52628946  0.41755284    -0.79100
O81         O  0.50082776  0.50393057  0.50603657    -1.89600
Cd82       Cd  0.47013930  0.46817312  0.53887781     1.59900
O83         O  0.52432966  0.48230280  0.41629013    -0.79000
O84         O  0.47916759  0.47983968  0.59543097    -0.77700
C85         C  0.60717439  0.51176890  0.49901555     0.84800
C86         C  0.49330713  0.61233549  0.50581462     0.84500
O87         O  0.52222430  0.52624122  0.59236051    -0.76600
C88         C  0.39274981  0.49588340  0.50932021     0.85300
O89         O  0.58723675  0.53274400  0.52267838    -0.76700
C90         C  0.50114584  0.50463335  0.39907365     0.85400
C91         C  0.50894761  0.39348134  0.50600945     0.85800
O92         O  0.53091827  0.41226504  0.48293489    -0.79200
N93         N  0.99750983  0.95785941  0.03930582    -0.34800
N94         N  0.99899236  0.04044915  0.03735605    -0.55300
N95         N  0.99951399  0.03821631  0.95071332    -0.34800
N96         N  0.99251043  0.95580547  0.95289882    -0.55300
C97         C  0.99196784  0.96536624  0.07780345     0.28800
C98         C  0.98762149  0.92085056  0.03345529     0.28800
C99         C  0.99262755  0.07628962  0.95773657     0.28800
C100        C  0.99085204  0.03146866  0.91324360     0.28800
C101        C  0.00529131  0.03549461  0.07569770     0.37400
C102        C  0.00562674  0.07796847  0.02897517     0.37400
C103        C  0.99790538  0.91777510  0.96098298     0.37400
C104        C  0.99947364  0.96013676  0.91411349     0.37400
C105        C  0.97861229  0.93260169  0.09656770    -0.20100
C106        C  0.97580353  0.90457536  0.06864173    -0.20100
C107        C  0.97967432  0.09397576  0.92432719    -0.20100
C108        C  0.97839994  0.06574621  0.89640243    -0.20100
C109        C  0.01569329  0.07011289  0.09178401    -0.21100
C110        C  0.01589398  0.09699303  0.06226198    -0.21100
C111        C  0.00796988  0.89784255  0.92714578    -0.21100
C112        C  0.00917893  0.92464705  0.89758187    -0.21100
C113        C  0.99988009  0.00053967  0.09667473    -0.16500
C114        C  0.99213017  0.90024968  0.99799774    -0.16500
C115        C  0.99557268  0.99556494  0.89339146    -0.16500
C116        C  0.99978919  0.09616373  0.99260383    -0.16500
H117        H  0.97172948  0.92916120  0.12723458     0.16400
H118        H  0.96661152  0.87528433  0.07379041     0.16400
H119        H  0.97204977  0.12421986  0.92037408     0.16400
H120        H  0.96942932  0.07007664  0.86697374     0.16400
H121        H  0.02214570  0.07553405  0.12170420     0.14700
H122        H  0.02245130  0.12725428  0.06511324     0.14700
H123        H  0.01397339  0.86713111  0.92406211     0.14700
H124        H  0.01642311  0.91861420  0.86739790     0.14700
H125        H  0.01137524  0.97513128  0.01884340     0.28000
H126        H  0.01330580  0.01916904  0.96918938     0.28000
N127        N  0.99835694  0.95684205  0.53815576    -0.34800
N128        N  0.99620592  0.04030272  0.53794099    -0.55300
N129        N  0.00264216  0.03982779  0.45148164    -0.34800
N130        N  0.99987927  0.95638401  0.45187764    -0.55300
C131        C  0.99196831  0.96318118  0.57675321     0.28800
C132        C  0.99322414  0.91880540  0.53152543     0.28800
C133        C  0.99557413  0.07790201  0.45831630     0.28800
C134        C  0.99816519  0.03362988  0.41302106     0.28800
C135        C  0.99925532  0.03481869  0.57672865     0.37400
C136        C  0.00076592  0.07850151  0.53108409     0.37400
C137        C  0.00408693  0.91795792  0.45870868     0.37400
C138        C  0.00568437  0.96168894  0.41308520     0.37400
C139        C  0.98289605  0.92859804  0.59488119    -0.20100
C140        C  0.98384996  0.90066451  0.56652926    -0.20100
C141        C  0.98730329  0.09625932  0.42361020    -0.20100
C142        C  0.98884676  0.06840416  0.39517409    -0.20100
C143        C  0.00525783  0.06982706  0.59461264    -0.21100
C144        C  0.00609208  0.09744461  0.56582028    -0.21100
C145        C  0.01187462  0.89877877  0.42388498    -0.21100
C146        C  0.01304252  0.92640425  0.39515519    -0.21100
C147        C  0.99563171  0.99887228  0.59647883    -0.16500
C148        C  0.99941972  0.89937530  0.49544231    -0.16500
C149        C  0.00289868  0.99770127  0.39327494    -0.16500
C150        C  0.99816197  0.09716354  0.49444266    -0.16500
H151        H  0.97665830  0.92381918  0.62548723     0.16400
H152        H  0.97873982  0.87028390  0.57148147     0.16400
H153        H  0.98084614  0.12667940  0.41910697     0.16400
H154        H  0.98358628  0.07327723  0.36478144     0.16400
H155        H  0.00858459  0.07500485  0.62523159     0.14700
H156        H  0.01003328  0.12806946  0.57006865     0.14700
H157        H  0.01605501  0.86798057  0.41943949     0.14700
H158        H  0.01851515  0.92104200  0.36452111     0.14700
H159        H  0.00970211  0.97615585  0.51809183     0.28000
H160        H  0.01351250  0.02025044  0.47131680     0.28000
N161        N  0.49676376  0.95283295  0.95868284    -0.34800
N162        N  0.49427307  0.03603589  0.95756045    -0.55300
N163        N  0.49361371  0.03663238  0.04409729    -0.34800
N164        N  0.50106415  0.95375318  0.04504271    -0.55300
C165        C  0.50257936  0.95895828  0.91990432     0.28800
C166        C  0.50561934  0.91524670  0.96601945     0.28800
C167        C  0.49813626  0.07457759  0.03590829     0.28800
C168        C  0.50181519  0.03112262  0.08199408     0.28800
C169        C  0.48905357  0.03000834  0.91927578     0.37400
C170        C  0.48634653  0.07392829  0.96432954     0.37400
C171        C  0.49913458  0.91521750  0.03919638     0.37400
C172        C  0.49810348  0.95933951  0.08400918     0.37400
C173        C  0.51476795  0.92455650  0.90246960    -0.20100
C174        C  0.51639821  0.89702029  0.93139340    -0.20100
C175        C  0.50873691  0.09349945  0.06913759    -0.20100
C176        C  0.51075266  0.06623888  0.09815746    -0.20100
C177        C  0.47771759  0.06429110  0.90170491    -0.21100
C178        C  0.47603790  0.09206475  0.93016956    -0.21100
C179        C  0.49559242  0.89624461  0.07470236    -0.21100
C180        C  0.49507520  0.92411805  0.10298183    -0.21100
C181        C  0.49620360  0.99440311  0.89960733    -0.16500
C182        C  0.50287934  0.89631824  0.00270634    -0.16500
C183        C  0.50024806  0.99559653  0.10280549    -0.16500
C184        C  0.49121794  0.09325121  0.99997365    -0.16500
H185        H  0.52177267  0.91966664  0.87202526     0.16400
H186        H  0.52480849  0.86694673  0.92733255     0.16400
H187        H  0.51423003  0.12396625  0.07235141     0.16400
H188        H  0.51803796  0.07184430  0.12779005     0.16400
H189        H  0.47152248  0.06890428  0.87148970     0.14700
H190        H  0.46852871  0.12231785  0.92607029     0.14700
H191        H  0.49410307  0.86539488  0.07982050     0.14700
H192        H  0.49310636  0.91893643  0.13396868     0.14700
H193        H  0.48403388  0.97187325  0.97863015     0.28000
H194        H  0.48189213  0.01681420  0.02579037     0.28000
N195        N  0.50325444  0.04582183  0.45909390    -0.34800
N196        N  0.50589840  0.04221360  0.54538257    -0.55300
N197        N  0.50143816  0.95924869  0.54214914    -0.34800
N198        N  0.50302523  0.96262834  0.45591713    -0.55300
C199        C  0.51282765  0.08241378  0.46764678     0.28800
C200        C  0.51071211  0.04042751  0.42046877     0.28800
C201        C  0.50673674  0.96332174  0.58078451     0.28800
C202        C  0.50584292  0.92122374  0.53348147     0.28800
C203        C  0.50220709  0.08092184  0.54017794     0.37400
C204        C  0.50067361  0.03537950  0.58400025     0.37400
C205        C  0.49718030  0.97028954  0.41795008     0.37400
C206        C  0.49607091  0.92465562  0.46152171     0.37400
C207        C  0.52616628  0.10060778  0.43400963    -0.20100
C208        C  0.52489703  0.07415312  0.40435012    -0.20100
C209        C  0.51377614  0.92713956  0.59689505    -0.20100
C210        C  0.51341157  0.90072176  0.56716242    -0.20100
C211        C  0.49495782  0.09881274  0.57571223    -0.21100
C212        C  0.49431599  0.07011391  0.60339606    -0.21100
C213        C  0.48642730  0.93699280  0.39944745    -0.21100
C214        C  0.48603779  0.90809107  0.42689379    -0.21100
C215        C  0.50781213  0.10078473  0.50434893    -0.16500
C216        C  0.50397331  0.00625177  0.39920780    -0.16500
C217        C  0.50063723  0.90397427  0.49674349    -0.16500
C218        C  0.50344976  0.99846396  0.60222786    -0.16500
H219        H  0.53577217  0.13002116  0.43108110     0.16400
H220        H  0.53345185  0.07923276  0.37431696     0.16400
H221        H  0.51822672  0.92019953  0.62704139     0.16400
H222        H  0.51752546  0.86974735  0.57026294     0.16400
H223        H  0.49111669  0.12947404  0.58126941     0.14700
H224        H  0.48996420  0.07455992  0.63429885     0.14700
H225        H  0.47991769  0.93368571  0.36921980     0.14700
H226        H  0.47923536  0.87820874  0.42184650     0.14700
H227        H  0.48863366  0.02731473  0.47779813     0.28000
H228        H  0.49158168  0.98032805  0.52335307     0.28000
C229        C  0.47398756  0.97338093  0.79368336     0.14500
C230        C  0.50156681  0.99474964  0.77267519     0.01400
C231        C  0.52769793  0.01568813  0.79390116     0.16400
C232        C  0.52615112  0.01529882  0.83481602     0.25800
C233        C  0.49815816  0.99441268  0.85570439    -0.40500
C234        C  0.47208149  0.97353479  0.83453675     0.32900
C235        C  0.50240995  0.99561598  0.72890287     0.01500
F236        F  0.55427128  0.03735060  0.77506664    -0.12800
F237        F  0.44449562  0.95333428  0.85352506    -0.13300
C238        C  0.46922719  0.00501849  0.70878531     0.16400
C239        C  0.46946571  0.00496353  0.66797980     0.25800
C240        C  0.50309797  0.99665183  0.64598855    -0.40400
C241        C  0.53640743  0.98756222  0.66589389     0.32800
C242        C  0.53602466  0.98672372  0.70679669     0.14500
F243        F  0.43656668  0.01520832  0.72868709    -0.12800
F244        F  0.56936077  0.97928840  0.64561754    -0.13300
F245        F  0.43678134  0.01357548  0.64977808    -0.15600
F246        F  0.56843303  0.97646559  0.72475896    -0.14200
F247        F  0.44907609  0.95172209  0.77458408    -0.14200
F248        F  0.55208558  0.03544428  0.85415107    -0.15600
C249        C  0.53178517  0.98209506  0.29344700     0.14500
C250        C  0.50526802  0.00430418  0.27253751     0.01400
C251        C  0.47961471  0.02895664  0.29375254     0.16400
C252        C  0.47960922  0.03023518  0.33460654     0.25800
C253        C  0.50568925  0.00745417  0.35537000    -0.40500
C254        C  0.53238534  0.98417897  0.33414249     0.32900
C255        C  0.50416142  0.00144423  0.22893620     0.01500
F256        F  0.45457813  0.05209867  0.27490732    -0.12800
F257        F  0.55873419  0.96272465  0.35305005    -0.13300
C258        C  0.46974652  0.99483253  0.21053472     0.16400
C259        C  0.46860431  0.99277264  0.16982177     0.25800
C260        C  0.50186034  0.99654169  0.14639471    -0.40400
C261        C  0.53640858  0.00205386  0.16460307     0.32800
C262        C  0.53751685  0.00493826  0.20526493     0.14500
F263        F  0.43718226  0.98959955  0.23201115    -0.12800
F264        F  0.56909815  0.00523196  0.14283101    -0.13300
F265        F  0.43488811  0.98705069  0.15314512    -0.15600
F266        F  0.57118848  0.01216391  0.22139590    -0.14200
F267        F  0.55639488  0.95716349  0.27462703    -0.14200
F268        F  0.45357858  0.05325401  0.35396490    -0.15600
C269        C  0.97024661  0.97334797  0.78815779     0.14500
C270        C  0.99558287  0.99659235  0.76644139     0.01400
C271        C  0.02108809  0.01913223  0.78659112     0.16400
C272        C  0.02142227  0.01831146  0.82741886     0.25800
C273        C  0.99581954  0.99535323  0.84937585    -0.40500
C274        C  0.97013713  0.97292977  0.82904142     0.32900
C275        C  0.99550524  0.99725242  0.72288614     0.01500
F276        F  0.04533086  0.04257675  0.76666556    -0.12800
F277        F  0.94458799  0.95078757  0.84878600    -0.13300
C278        C  0.96358547  0.01141176  0.70327884     0.16400
C279        C  0.96364836  0.01216437  0.66241184     0.25800
C280        C  0.99548311  0.99843364  0.64019793    -0.40400
C281        C  0.02726225  0.98401864  0.65976755     0.32800
C282        C  0.02739177  0.98369500  0.70060050     0.14500
F283        F  0.93251441  0.02512605  0.72377857    -0.12800
F284        F  0.05829238  0.97030880  0.63919604    -0.13300
F285        F  0.93251232  0.02615234  0.64443299    -0.15600
F286        F  0.05852688  0.96953171  0.71845926    -0.14200
F287        F  0.94581732  0.95059562  0.76966259    -0.14200
F288        F  0.04688512  0.04010999  0.84559388    -0.15600
C289        C  0.97273792  0.01867896  0.20390990     0.14500
C290        C  0.00239229  0.99935603  0.22312812     0.01400
C291        C  0.03146084  0.98082940  0.20032781     0.16400
C292        C  0.03080054  0.98154190  0.15949150     0.25800
C293        C  0.00110738  0.00079870  0.14037142    -0.40500
C294        C  0.97210847  0.01936937  0.16309053     0.32900
C295        C  0.00285567  0.99847932  0.26675768     0.01500
F296        F  0.06013612  0.96123082  0.21764251    -0.12800
F297        F  0.94285947  0.03787483  0.14565758    -0.13300
C298        C  0.97203785  0.98367272  0.28898572     0.16400
C299        C  0.97219585  0.98330678  0.32980490     0.25800
C300        C  0.00312258  0.99772407  0.34952640    -0.40400
C301        C  0.03395925  0.01251652  0.32743596     0.32800
C302        C  0.03389086  0.01279134  0.28656901     0.14500
F303        F  0.94187876  0.96899691  0.27111505    -0.12800
F304        F  0.06418847  0.02677494  0.34553181    -0.13300
F305        F  0.94190726  0.96908754  0.35023505    -0.15600
F306        F  0.06385968  0.02788600  0.26632194    -0.14200
F307        F  0.94452208  0.03741665  0.22473322    -0.14200
F308        F  0.05924539  0.96335728  0.13849406    -0.15600
C309        C  0.48282066  0.28895603  0.52655657     0.14500
C310        C  0.51146493  0.26826186  0.50560739     0.01400
C311        C  0.53997313  0.28871679  0.48533594     0.16400
C312        C  0.53954594  0.32930654  0.48559942     0.25800
C313        C  0.51050572  0.35029156  0.50628687    -0.40500
C314        C  0.48226679  0.32937771  0.52696258     0.32900
C315        C  0.51107685  0.22535859  0.50473829     0.01500
F316        F  0.56782079  0.26935100  0.46455886    -0.12800
F317        F  0.45357494  0.34785205  0.54735986    -0.13300
C318        C  0.47975621  0.20637525  0.49015223     0.16400
C319        C  0.47864405  0.16595312  0.49042473     0.25800
C320        C  0.50889450  0.14381902  0.50506388    -0.40400
C321        C  0.54025523  0.16268714  0.51961005     0.32800
C322        C  0.54134222  0.20318163  0.51945841     0.14500
F323        F  0.45041044  0.22706000  0.47524410    -0.12800
F324        F  0.56976251  0.14180564  0.53391278    -0.13300
F325        F  0.44795593  0.14828174  0.47653566    -0.15600
F326        F  0.57157059  0.22079659  0.53436765    -0.14200
F327        F  0.45535504  0.26988856  0.54701864    -0.14200
F328        F  0.56762152  0.34788037  0.46557023    -0.15600
C329        C  0.53298654  0.79860300  0.49146911     0.14500
C330        C  0.49836081  0.77966979  0.49750005     0.01400
C331        C  0.46445437  0.80173910  0.50189210     0.16400
C332        C  0.46516460  0.84215581  0.50089137     0.25800
C333        C  0.49975605  0.86105568  0.49533609    -0.40500
C334        C  0.53363849  0.83908932  0.49020608     0.32900
C335        C  0.49735480  0.73693039  0.49959094     0.01500
F336        F  0.43077756  0.78405139  0.50818951    -0.12800
F337        F  0.56730295  0.85696758  0.48456245    -0.13300
C338        C  0.51442005  0.71682763  0.53009027     0.16400
C339        C  0.51240886  0.67649448  0.53271516     0.25800
C340        C  0.49338037  0.65539573  0.50463100    -0.40400
C341        C  0.47611066  0.67590589  0.47419755     0.32800
C342        C  0.47819296  0.71620153  0.47173938     0.14500
F343        F  0.53250946  0.73639373  0.55775883    -0.12800
F344        F  0.45791914  0.65704108  0.44612880    -0.13300
F345        F  0.52880744  0.65827202  0.56304141    -0.15600
F346        F  0.46205493  0.73504298  0.44163452    -0.14200
F347        F  0.56604288  0.77785415  0.48667797    -0.14200
F348        F  0.43218699  0.86297204  0.50584539    -0.15600
C349        C  0.52514490  0.19552377  0.98570279     0.14500
C350        C  0.49521933  0.21745975  0.00360938     0.01400
C351        C  0.46331952  0.19823415  0.01926479     0.16400
C352        C  0.46159910  0.15789443  0.01736395     0.25800
C353        C  0.49152384  0.13620915  0.99947294    -0.40500
C354        C  0.52314440  0.15527520  0.98342430     0.32900
C355        C  0.49690848  0.26033220  0.00506557     0.01500
F356        F  0.43357867  0.21855322  0.03590603    -0.12800
F357        F  0.55248705  0.13468737  0.96636076    -0.13300
C358        C  0.50371364  0.28162191  0.97076776     0.16400
C359        C  0.50505732  0.32194760  0.97173506     0.25800
C360        C  0.49878634  0.34200195  0.00690030    -0.40400
C361        C  0.49184525  0.32080791  0.04128810     0.32800
C362        C  0.49135518  0.28029041  0.04043914     0.14500
F363        F  0.50804535  0.26340930  0.93600394    -0.12800
F364        F  0.48653730  0.33923074  0.07585272    -0.13300
F365        F  0.51118998  0.34149409  0.93791148    -0.15600
F366        F  0.48615580  0.26051981  0.07427995    -0.14200
F367        F  0.55677382  0.21299317  0.97123644    -0.14200
F368        F  0.43088064  0.13986077  0.03319687    -0.15600
C369        C  0.49515005  0.70902860  0.97489167     0.14500
C370        C  0.50850497  0.72902081  0.00677742     0.01400
C371        C  0.52215693  0.70788910  0.03852203     0.16400
C372        C  0.52177213  0.66729505  0.03860832     0.25800
C373        C  0.50754768  0.64717668  0.00690070    -0.40500
C374        C  0.49456961  0.66866854  0.97492271     0.32900
C375        C  0.50728899  0.77191926  0.00680244     0.01500
F376        F  0.53485168  0.72661695  0.06989554    -0.12800
F377        F  0.48172023  0.65067930  0.94319303    -0.13300
C378        C  0.47236271  0.79208423  0.00352244     0.16400
C379        C  0.47109070  0.83249994  0.00168486     0.25800
C380        C  0.50467111  0.85335806  0.00314217    -0.40400
C381        C  0.53956803  0.83339939  0.00674106     0.32800
C382        C  0.54089569  0.79290325  0.00857515     0.14500
F383        F  0.43942866  0.77254695  0.00255439    -0.12800
F384        F  0.57225256  0.85324676  0.00836019    -0.13300
F385        F  0.43706150  0.85141583  0.99890196    -0.15600
F386        F  0.57500484  0.77413836  0.01125619    -0.14200
F387        F  0.48294451  0.72872701  0.94335161    -0.14200
F388        F  0.53428324  0.64786828  0.07017909    -0.15600
C389        C  0.51511672  0.46421554  0.79522747     0.14500
C390        C  0.50419976  0.49840394  0.77638913     0.01400
C391        C  0.49314720  0.53136269  0.79760357     0.16400
C392        C  0.49312585  0.53037507  0.83782044     0.25800
C393        C  0.50410754  0.49614550  0.85717963    -0.40500
C394        C  0.51498140  0.46295425  0.83556217     0.32900
C395        C  0.50348299  0.49967404  0.73437545     0.01500
F396        F  0.48252969  0.56450819  0.77922126    -0.12800
F397        F  0.52451299  0.42912174  0.85333001    -0.13300
C398        C  0.46892742  0.49583104  0.71623960     0.16400
C399        C  0.46800863  0.49721927  0.67600141     0.25800
C400        C  0.50167196  0.50315931  0.65379805    -0.40400
C401        C  0.53615271  0.50787030  0.67227062     0.32800
C402        C  0.53705393  0.50580829  0.71252224     0.14500
F403        F  0.43624184  0.49075085  0.73761894    -0.12800
F404        F  0.56903111  0.51329514  0.65135181    -0.13300
F405        F  0.43421730  0.49349786  0.65879972    -0.15600
F406        F  0.57050039  0.50989874  0.73027488    -0.14200
F407        F  0.52529191  0.43204234  0.77450113    -0.14200
F408        F  0.48287915  0.56309437  0.85764957    -0.15600
C409        C  0.51168649  0.53283705  0.21032344     0.14500
C410        C  0.49994103  0.50145346  0.23313183     0.01400
C411        C  0.48617741  0.46824062  0.21574142     0.16400
C412        C  0.48407953  0.46645034  0.17558070     0.25800
C413        C  0.49600307  0.49786496  0.15258320    -0.40500
C414        C  0.50972684  0.53112722  0.17025969     0.32900
C415        C  0.50168679  0.50352050  0.27523731     0.01500
F416        F  0.47467493  0.43769776  0.23773718    -0.12800
F417        F  0.52096935  0.56216851  0.14882759    -0.13300
C418        C  0.47986843  0.53155184  0.29573300     0.16400
C419        C  0.48024232  0.53258554  0.33602557     0.25800
C420        C  0.50222447  0.50512393  0.35634535    -0.40400
C421        C  0.52501976  0.47776570  0.33525362     0.32800
C422        C  0.52475541  0.47714707  0.29498157     0.14500
F423        F  0.45754642  0.55737423  0.27667245    -0.12800
F424        F  0.54724510  0.45115173  0.35334598    -0.13300
F425        F  0.45897312  0.56041128  0.35489716    -0.15600
F426        F  0.54703785  0.45077720  0.27514318    -0.14200
F427        F  0.52555333  0.56489077  0.22689411    -0.14200
F428        F  0.47150444  0.43368247  0.15923295    -0.15600
C429        C  0.03112911  0.20071346  0.49049410     0.14500
C430        C  0.99641329  0.22172009  0.49308413     0.01400
C431        C  0.96220219  0.20150602  0.49562935     0.16400
C432        C  0.96276834  0.16099431  0.49612014     0.25800
C433        C  0.99748841  0.14016310  0.49383113    -0.40500
C434        C  0.03162993  0.16023002  0.49076420     0.32900
C435        C  0.99606438  0.26463811  0.49393854     0.01500
F436        F  0.92827253  0.22103649  0.49713528    -0.12800
F437        F  0.06542491  0.14049890  0.48840407    -0.13300
C438        C  0.01303766  0.28570584  0.46327013     0.16400
C439        C  0.01402823  0.32611616  0.46476570     0.25800
C440        C  0.99775064  0.34640934  0.49694070    -0.40400
C441        C  0.98041239  0.32513248  0.52748742     0.32800
C442        C  0.97963796  0.28469696  0.52596067     0.14500
F443        F  0.02821013  0.26710942  0.43150263    -0.12800
F444        F  0.96503849  0.34328218  0.55941902    -0.13300
F445        F  0.03036547  0.34532763  0.43428255    -0.15600
F446        F  0.96368076  0.26499647  0.55632497    -0.14200
F447        F  0.06457964  0.21946074  0.48859004    -0.14200
F448        F  0.92949048  0.14197713  0.49860428    -0.15600
C449        C  0.99537899  0.71223556  0.46585568     0.14500
C450        C  0.01085643  0.73231842  0.49650725     0.01400
C451        C  0.02813441  0.71150213  0.52642223     0.16400
C452        C  0.02836024  0.67095923  0.52660695     0.25800
C453        C  0.01136522  0.65056992  0.49663035    -0.40500
C454        C  0.99588727  0.67184391  0.46565430     0.32900
C455        C  0.00807913  0.77501701  0.49742231     0.01500
F456        F  0.04363631  0.73050630  0.55614605    -0.12800
F457        F  0.98106642  0.65370204  0.43500747    -0.13300
C458        C  0.97235603  0.79380478  0.50198329     0.16400
C459        C  0.96937721  0.83423113  0.50121025     0.25800
C460        C  0.00216117  0.85636630  0.49632273    -0.40400
C461        C  0.03788543  0.83754409  0.49214419     0.32800
C462        C  0.04082231  0.79712631  0.49255887     0.14500
F463        F  0.94044559  0.77288489  0.50744167    -0.12800
F464        F  0.06982338  0.85846791  0.48710719    -0.13300
F465        F  0.93460801  0.85184439  0.50544723    -0.15600
F466        F  0.07548634  0.77950604  0.48734528    -0.14200
F467        F  0.97963669  0.73189236  0.43602326    -0.14200
F468        F  0.04420934  0.65189402  0.55673864    -0.15600
C469        C  0.70942972  0.50528752  0.46016911     0.14500
C470        C  0.72910226  0.51877760  0.49185963     0.01400
C471        C  0.70854551  0.53305317  0.52462596     0.16400
C472        C  0.66883472  0.53204465  0.52656905     0.25800
C473        C  0.64898380  0.51639964  0.49574498    -0.40500
C474        C  0.66973078  0.50418347  0.46199667     0.32900
C475        C  0.77102416  0.51554251  0.49193474     0.01500
F476        F  0.72710166  0.54740099  0.55505493    -0.12800
F477        F  0.65165539  0.49105275  0.43069777    -0.13300
C478        C  0.79365578  0.53760505  0.46635045     0.16400
C479        C  0.83335408  0.53448349  0.46699309     0.25800
C480        C  0.85117269  0.50893353  0.49321745    -0.40400
C481        C  0.82805153  0.48648232  0.51844880     0.32800
C482        C  0.78847895  0.48982505  0.51773447     0.14500
F483        F  0.77725790  0.56258234  0.44108750    -0.12800
F484        F  0.84352615  0.46146746  0.54427653    -0.13300
F485        F  0.85417541  0.55641336  0.44175451    -0.15600
F486        F  0.76702404  0.46751085  0.54205344    -0.14200
F487        F  0.72876629  0.49182733  0.42799163    -0.14200
F488        F  0.65004500  0.54506541  0.55923695    -0.15600
C489        C  0.28978621  0.50016086  0.48018522     0.14500
C490        C  0.27082318  0.48700727  0.51404319     0.01400
C491        C  0.29195312  0.47544171  0.54596792     0.16400
C492        C  0.33162268  0.47796786  0.54439541     0.25800
C493        C  0.35079040  0.49216011  0.51073828    -0.40500
C494        C  0.32936922  0.50273642  0.47847073     0.32900
C495        C  0.22885078  0.48751397  0.51636265     0.01500
F496        F  0.27405881  0.46278436  0.57903792    -0.12800
F497        F  0.34670421  0.51511861  0.44500359    -0.13300
C498        C  0.20874060  0.45316143  0.51329658     0.16400
C499        C  0.16901309  0.45447507  0.51197378     0.25800
C500        C  0.14886672  0.49014011  0.51446281    -0.40400
C501        C  0.16912443  0.52435446  0.51860535     0.32800
C502        C  0.20879788  0.52302164  0.51932125     0.14500
F503        F  0.22765846  0.41854141  0.51043293    -0.12800
F504        F  0.15065799  0.55928744  0.51993386    -0.13300
F505        F  0.15021267  0.42093240  0.50825796    -0.15600
F506        F  0.22784540  0.55651568  0.52215854    -0.14200
F507        F  0.26977324  0.51061367  0.44872926    -0.14200
F508        F  0.35107742  0.46775048  0.57630370    -0.15600
C509        C  0.03162335  0.19895534  0.97441470     0.14500
C510        C  0.00101412  0.22063836  0.99122115     0.01400
C511        C  0.96946341  0.20122446  0.00724264     0.16400
C512        C  0.96896696  0.16076724  0.00735020     0.25800
C513        C  0.99986999  0.13915206  0.99124257    -0.40500
C514        C  0.03099881  0.15846827  0.97433049     0.32900
C515        C  0.00213830  0.26345969  0.99245462     0.01500
F516        F  0.93950262  0.22147873  0.02352811    -0.12800
F517        F  0.06090336  0.13802341  0.95816707    -0.13300
C518        C  0.97519236  0.28606424  0.97303799     0.16400
C519        C  0.97600978  0.32648142  0.97433450     0.25800
C520        C  0.00385151  0.34537546  0.99535322    -0.40400
C521        C  0.03069020  0.32236479  0.01512762     0.32800
C522        C  0.02984898  0.28187987  0.01351753     0.14500
F523        F  0.94818308  0.26891245  0.95238803    -0.12800
F524        F  0.05777858  0.33881725  0.03621092    -0.13300
F525        F  0.94915507  0.34693912  0.95512117    -0.15600
F526        F  0.05569898  0.26053268  0.03323909    -0.14200
F527        F  0.06193029  0.21707275  0.95781633    -0.14200
F528        F  0.93845374  0.14253647  0.02336947    -0.15600
C529        C  0.96149546  0.79643707  0.98738017     0.14500
C530        C  0.99247136  0.77591653  0.00267986     0.01400
C531        C  0.02285515  0.79630583  0.01718280     0.16400
C532        C  0.02256650  0.83675639  0.01580629     0.25800
C533        C  0.99182738  0.85730039  0.00005223    -0.40500
C534        C  0.96111531  0.83692102  0.98615896     0.32900
C535        C  0.99372896  0.73318914  0.00213267     0.01500
F536        F  0.05316010  0.77695190  0.03179768    -0.12800
F537        F  0.93089376  0.85630359  0.97140462    -0.13300
C538        C  0.00160783  0.71355287  0.96712223     0.16400
C539        C  0.00301605  0.67307376  0.96627685     0.25800
C540        C  0.99603300  0.65150103  0.00047499    -0.40400
C541        C  0.98801207  0.67142267  0.03557625     0.32800
C542        C  0.98717231  0.71194306  0.03639098     0.14500
F543        F  0.00816914  0.73372816  0.93375293    -0.12800
F544        F  0.98178351  0.65171662  0.06928956    -0.13300
F545        F  0.01031847  0.65503482  0.93180065    -0.15600
F546        F  0.97968743  0.73050923  0.07056173    -0.14200
F547        F  0.93169133  0.77715895  0.97365867    -0.14200
F548        F  0.05254476  0.85599471  0.02921404    -0.15600
C549        C  0.71248438  0.47703973  0.97374806     0.14500
C550        C  0.73034108  0.48905567  0.00725498     0.01400
C551        C  0.70805319  0.50030869  0.04003035     0.16400
C552        C  0.66842707  0.49995238  0.03929511     0.25800
C553        C  0.65026729  0.48837573  0.00562045    -0.40500
C554        C  0.67278393  0.47669127  0.97287516     0.32900
C555        C  0.77222491  0.49055799  0.00788793     0.01500
F556        F  0.72477378  0.51126113  0.07298089    -0.12800
F557        F  0.65646895  0.46611389  0.93957414    -0.13300
C558        C  0.78995398  0.52614268  0.01236819     0.16400
C559        C  0.82955855  0.52777759  0.01277994     0.25800
C560        C  0.85211711  0.49380750  0.00850665    -0.40400
C561        C  0.83424961  0.45812823  0.00421441     0.32800
C562        C  0.79461535  0.45654683  0.00401615     0.14500
F563        F  0.76885776  0.55946881  0.01531651    -0.12800
F564        F  0.85511942  0.42467547  0.00086881    -0.13300
F565        F  0.84586267  0.56277726  0.01582728    -0.15600
F566        F  0.77801287  0.42174449  0.00056310    -0.14200
F567        F  0.73355192  0.46666477  0.94150212    -0.14200
F568        F  0.64787666  0.51033726  0.07186086    -0.15600
C569        C  0.29158112  0.46770610  0.99567732     0.14500
C570        C  0.27189864  0.50318022  0.99121954     0.01400
C571        C  0.29237051  0.53749328  0.98866674     0.16400
C572        C  0.33193772  0.53642380  0.99152160     0.25800
C573        C  0.35162815  0.50096624  0.99731860    -0.40500
C574        C  0.33105170  0.46657250  0.99876614     0.32900
C575        C  0.22988005  0.50423388  0.99132318     0.01500
F576        F  0.27389442  0.57214576  0.98472529    -0.12800
F577        F  0.34921695  0.43171265  0.00229035    -0.13300
C578        C  0.20915222  0.49134993  0.02422189     0.16400
C579        C  0.16955722  0.49054350  0.02437476     0.25800
C580        C  0.14973933  0.50267842  0.99149348    -0.40400
C581        C  0.17057797  0.51655343  0.95880719     0.32800
C582        C  0.21035165  0.51728533  0.95876232     0.14500
F583        F  0.22738682  0.47990156  0.05651355    -0.12800
F584        F  0.15262160  0.52840962  0.92649626    -0.13300
F585        F  0.15063998  0.47855419  0.05713324    -0.15600
F586        F  0.22986202  0.52976980  0.92657308    -0.14200
F587        F  0.27243895  0.43406632  0.99688166    -0.14200
F588        F  0.35079965  0.57022435  0.98987104    -0.15600
C589        C  0.01384571  0.50771094  0.78546363     0.14500
C590        C  0.97712783  0.50653004  0.77116212     0.01400
C591        C  0.94559358  0.50308556  0.79679618     0.23600
C592        C  0.95078599  0.50115972  0.83666814     0.25800
C593        C  0.98759923  0.50263199  0.85104282    -0.40500
C594        C  0.01907499  0.50593343  0.82521533     0.32900
C595        C  0.97254003  0.50765992  0.72920824     0.01500
F596        F  0.90993881  0.50206089  0.78319346    -0.12800
F597        F  0.05492197  0.50625924  0.83840612    -0.13300
C598        C  0.96187996  0.47431227  0.70985749     0.16400
C599        C  0.96464412  0.47285209  0.66948104     0.25800
C600        C  0.97817588  0.50485869  0.64813674    -0.40400
C601        C  0.98628873  0.53916478  0.66768940     0.32800
C602        C  0.98354813  0.54046251  0.70803403     0.14500
F603        F  0.95123955  0.44235367  0.73016071    -0.12800
F604        F  0.99742650  0.57123423  0.64786057    -0.13300
F605        F  0.95633494  0.43934564  0.65155971    -0.15600
F606        F  0.99298621  0.57322942  0.72662966    -0.14200
F607        F  0.04466766  0.50969174  0.76072810    -0.14200
F608        F  0.91987753  0.49892994  0.86125611    -0.15600
C609        C  0.98527213  0.52394989  0.21075279     0.14500
C610        C  0.01081800  0.49889322  0.22912415     0.01400
C611        C  0.03490356  0.47407103  0.20704626     0.16400
C612        C  0.03320665  0.47392175  0.16676471     0.25800
C613        C  0.00700515  0.49852433  0.14798927    -0.40500
C614        C  0.98322005  0.52377877  0.17055867     0.32900
C615        C  0.01127783  0.49789978  0.27151887     0.01500
F616        F  0.05938542  0.44924651  0.22461638    -0.12800
F617        F  0.95778299  0.54833213  0.15403253    -0.13300
C618        C  0.97810007  0.48853275  0.29292654     0.16400
C619        C  0.97765253  0.48930270  0.33321262     0.25800
C620        C  0.01063099  0.49846012  0.35237476    -0.40400
C621        C  0.04410013  0.50701855  0.33116202     0.32800
C622        C  0.04435236  0.50704808  0.29072278     0.14500
F623        F  0.94628738  0.47839960  0.27472248    -0.12800
F624        F  0.07590490  0.51670593  0.34961298    -0.13300
F625        F  0.94525945  0.48047999  0.35362102    -0.15600
F626        F  0.07638996  0.51696497  0.27031352    -0.14200
F627        F  0.96227637  0.54867807  0.23188760    -0.14200
F628        F  0.05706475  0.44939101  0.14642389    -0.15600
loop_ 
_geom_bond_atom_site_label_1 
_geom_bond_atom_site_label_2 
_geom_bond_distance 
_geom_bond_site_symmetry_2 
_ccdc_geom_bond_type 
O1           C17   1.272       .  A
O1           Zn7   1.987       .  S
C2           O18   1.273   1_455  A
C2           O15   1.275   1_556  A
C2          C520   1.495       .  S
O3           C16   1.274       .  A
O3          Cd10   2.072       .  S
O4           C22   1.272       .  A
O4          Cd13   2.044       .  S
O5           C19   1.275       .  A
O5           Cd9   2.076       .  S
O6           C17   1.274   1_455  A
O6           Cd9   2.050       .  S
Zn7          O18   2.016       .  S
Zn7          O20   2.005       .  S
Zn7          O12   1.932   1_655  S
O8           C19   1.274   1_554  A
O8          Cd13   2.063       .  S
Cd9          O11   2.079       .  S
Cd9          O12   1.999       .  S
Cd10         O14   2.070       .  S
Cd10         O23   2.045       .  S
Cd10         O12   1.995   1_654  S
O11          C21   1.275   1_455  A
O12         Cd13   1.993   1_556  S
Cd13         O15   2.083       .  S
O14          C21   1.274   1_554  A
C16          O20   1.272   1_554  A
C16         C560   1.478       .  S
C17         C593   1.461       .  S
C19         C580   1.484       .  S
C21         C540   1.484   1_556  S
C22          O23   1.273   1_455  A
C22         C613   1.476       .  S
O24          C40   1.274       .  A
O24         Zn30   2.029       .  S
C25          O41   1.275   1_655  A
C25          O38   1.272       .  A
C25         C600   1.468       .  S
O26          C39   1.273       .  A
O26         Cd33   2.063       .  S
O27          C45   1.275       .  A
O27         Cd36   2.073       .  S
O28          C42   1.273       .  A
O28         Cd32   2.068       .  S
O29          C40   1.272   1_655  A
O29         Cd32   2.055       .  S
Zn30         O41   2.003       .  S
Zn30         O43   2.032       .  S
Zn30         O35   1.941       .  S
O31          C42   1.274       .  A
O31         Cd36   2.069       .  S
Cd32         O34   2.033       .  S
Cd32         O35   1.986   1_655  S
Cd33         O37   2.050       .  S
Cd33         O46   2.072       .  S
Cd33         O35   1.991       .  S
O34          C44   1.271   1_655  A
O35         Cd36   1.992   1_455  S
Cd36         O38   2.037       .  S
O37          C44   1.273       .  A
C39          O43   1.276       .  A
C39         C500   1.479       .  S
C40         C453   1.488       .  S
C42         C480   1.490       .  S
C44         C620   1.450       .  S
C45          O46   1.275   1_655  A
C45         C440   1.488       .  S
O47          C63   1.274       .  A
O47         Zn53   2.034       .  S
C48          O64   1.270       .  A
C48          O61   1.274       .  A
C48         C413   1.459       .  S
O49          C62   1.274   1_556  A
O49         Cd56   2.072       .  S
O50          C68   1.275       .  A
O50         Cd59   2.078       .  S
O51          C65   1.272   1_556  A
O51         Cd55   2.057       .  S
O52          C63   1.272   1_556  A
O52         Cd55   2.057       .  S
Zn53         O64   1.959       .  S
Zn53         O66   2.013       .  S
Zn53         O58   1.931       .  S
O54          C65   1.277       .  A
O54         Cd59   2.086       .  S
Cd55         O57   2.022       .  S
Cd55         O58   1.980   1_556  S
Cd56         O60   2.037       .  S
Cd56         O69   2.065       .  S
Cd56         O58   1.992   1_556  S
O57          C67   1.270       .  A
O58         Cd59   1.999       .  S
Cd59         O61   2.048       .  S
O60          C67   1.272       .  A
C62          O66   1.273       .  A
C62         C553   1.483       .  S
C63         C373   1.488       .  S
C65         C573   1.482   1_554  S
C67         C393   1.462       .  S
C68          O69   1.274   1_554  A
C68         C360   1.480       .  S
O70          C86   1.273       .  A
O70         Zn76   2.015       .  S
C71          O87   1.273       .  A
C71          O84   1.271       .  A
C71         C400   1.457       .  S
O72          C85   1.273       .  A
O72         Cd79   2.064       .  S
O73          C91   1.273       .  A
O73         Cd82   2.061       .  S
O74          C88   1.276       .  A
O74         Cd78   2.084       .  S
O75          C86   1.275       .  A
O75         Cd78   2.073       .  S
Zn76         O87   1.993       .  S
Zn76         O89   2.023       .  S
Zn76         O81   1.940       .  S
O77          C88   1.272       .  A
O77         Cd82   2.062       .  S
Cd78         O80   2.046       .  S
Cd78         O81   1.995       .  S
Cd79         O83   2.033       .  S
Cd79         O92   2.084       .  S
Cd79         O81   1.993       .  S
O80          C90   1.273       .  A
O81         Cd82   1.985       .  S
Cd82         O84   2.030       .  S
O83          C90   1.271       .  A
C85          O89   1.274       .  A
C85         C473   1.485       .  S
C86         C340   1.489       .  S
C88         C493   1.486       .  S
C90         C420   1.472       .  S
C91          O92   1.276       .  A
C91         C313   1.493       .  S
N93          C98   1.352       .  A
N93          C97   1.359       .  A
N93         H125   1.038   1_655  S
N94         C101   1.357   1_655  A
N94         C102   1.352   1_655  A
N95         C100   1.360       .  A
N95          C99   1.354       .  A
N95         H126   1.039   1_655  S
N96         C103   1.353       .  A
N96         C104   1.358       .  A
C97         C105   1.385       .  A
C97         C113   1.420   1_565  A
C98         C114   1.419   1_554  A
C98         C106   1.389       .  A
C99         C107   1.388       .  A
C99         C116   1.420       .  A
C100        C115   1.423   1_545  A
C100        C108   1.386       .  A
C101        C113   1.419   1_455  A
C101        C109   1.384       .  A
C102        C116   1.420   1_454  A
C102        C110   1.389       .  A
C103        C111   1.388   1_655  A
C103        C114   1.420       .  A
C104        C112   1.385   1_655  A
C104        C115   1.421       .  A
C105        C106   1.376       .  A
C105        H117   1.082       .  S
C106        H118   1.082       .  S
C107        C108   1.376       .  A
C107        H119   1.082       .  S
C108        H120   1.082       .  S
C109        C110   1.375       .  A
C109        H121   1.082       .  S
C110        H122   1.082       .  S
C111        C112   1.374       .  A
C111        H123   1.082       .  S
C112        H124   1.082       .  S
C113        C293   1.508   1_655  S
C114        C533   1.486   1_556  S
C115        C273   1.517       .  S
C116        C513   1.487       .  S
N127        C132   1.353       .  A
N127        C131   1.359       .  A
N127        H159   1.035   1_655  S
N128        C135   1.357       .  A
N128        C136   1.353   1_655  A
N129        C134   1.359   1_455  A
N129        C133   1.354   1_455  A
N129        H160   1.037       .  S
N130        C137   1.354   1_655  A
N130        C138   1.357   1_655  A
C131        C139   1.385       .  A
C131        C147   1.422       .  A
C132        C148   1.423       .  A
C132        C140   1.390       .  A
C133        C141   1.389       .  A
C133        C150   1.421       .  A
C134        C149   1.422   1_645  A
C134        C142   1.386       .  A
C135        C147   1.420   1_545  A
C135        C143   1.385   1_655  A
C136        C150   1.421   1_455  A
C136        C144   1.388       .  A
C137        C145   1.389       .  A
C137        C148   1.423   1_455  A
C138        C146   1.384       .  A
C138        C149   1.420       .  A
C139        C140   1.376       .  A
C139        H151   1.082       .  S
C140        H152   1.082       .  S
C141        C142   1.376       .  A
C141        H153   1.082       .  S
C142        H154   1.082       .  S
C143        C144   1.374       .  A
C143        H155   1.082       .  S
C144        H156   1.082       .  S
C145        C146   1.373       .  A
C145        H157   1.082       .  S
C146        H158   1.082       .  S
C147        C280   1.507       .  S
C148        C460   1.488   1_655  S
C149        C300   1.508       .  S
C150        C433   1.486       .  S
N161        C166   1.354       .  A
N161        C165   1.361       .  A
N161        H193   1.036       .  S
N162        C169   1.357       .  A
N162        C170   1.352       .  A
N163        C168   1.360       .  A
N163        C167   1.352       .  A
N163        H194   1.037       .  S
N164        C171   1.352       .  A
N164        C172   1.358       .  A
C165        C173   1.386       .  A
C165        C181   1.425       .  A
C166        C182   1.422   1_556  A
C166        C174   1.388       .  A
C167        C175   1.389       .  A
C167        C184   1.420   1_554  A
C168        C183   1.421   1_545  A
C168        C176   1.386       .  A
C169        C181   1.420   1_545  A
C169        C177   1.385       .  A
C170        C184   1.419       .  A
C170        C178   1.388       .  A
C171        C179   1.389       .  A
C171        C182   1.420       .  A
C172        C180   1.384       .  A
C172        C183   1.418       .  A
C173        C174   1.377       .  A
C173        H185   1.082       .  S
C174        H186   1.082       .  S
C175        C176   1.374       .  A
C175        H187   1.082       .  S
C176        H188   1.082       .  S
C177        C178   1.374       .  A
C177        H189   1.082       .  S
C178        H190   1.082       .  S
C179        C180   1.373       .  A
C179        H191   1.082       .  S
C180        H192   1.082       .  S
C181        C233   1.512       .  S
C182        C380   1.485       .  S
C183        C260   1.506       .  S
C184        C353   1.485       .  S
N195        C200   1.360       .  A
N195        C199   1.353       .  A
N195        H227   1.038       .  S
N196        C203   1.353       .  A
N196        C204   1.357       .  A
N197        C202   1.353       .  A
N197        C201   1.360       .  A
N197        H228   1.035       .  S
N198        C205   1.356       .  A
N198        C206   1.353       .  A
C199        C207   1.389       .  A
C199        C215   1.421       .  A
C200        C216   1.422       .  A
C200        C208   1.385       .  A
C201        C209   1.387       .  A
C201        C218   1.425       .  A
C202        C217   1.422       .  A
C202        C210   1.388       .  A
C203        C215   1.420       .  A
C203        C211   1.387       .  A
C204        C218   1.423   1_545  A
C204        C212   1.386       .  A
C205        C213   1.386       .  A
C205        C216   1.420   1_565  A
C206        C214   1.387       .  A
C206        C217   1.418       .  A
C207        C208   1.377       .  A
C207        H219   1.082       .  S
C208        H220   1.082       .  S
C209        C210   1.376       .  A
C209        H221   1.082       .  S
C210        H222   1.082       .  S
C211        C212   1.373       .  A
C211        H223   1.082       .  S
C212        H224   1.082       .  S
C213        C214   1.373       .  A
C213        H225   1.082       .  S
C214        H226   1.082       .  S
C215        C320   1.489       .  S
C216        C253   1.510       .  S
C217        C333   1.486       .  S
C218        C240   1.509       .  S
C229        C230   1.411       .  A
C229        C234   1.407       .  A
C229        F247   1.357       .  S
C230        C235   1.508       .  S
C230        C231   1.412   1_565  A
C231        C232   1.409       .  A
C231        F236   1.358       .  S
C232        C233   1.410   1_545  A
C232        F248   1.358       .  S
C233        C234   1.408       .  A
C234        F237   1.357       .  S
C235        C238   1.411   1_565  A
C235        C242   1.412       .  A
C238        C239   1.406       .  A
C238        F243   1.357       .  S
C239        C240   1.407   1_545  A
C239        F245   1.357       .  S
C240        C241   1.409       .  A
C241        C242   1.410       .  A
C241        F244   1.358       .  S
C242        F246   1.358       .  S
C249        C250   1.411   1_565  A
C249        C254   1.406       .  A
C249        F267   1.357       .  S
C250        C255   1.508       .  S
C250        C251   1.413       .  A
C251        C252   1.409       .  A
C251        F256   1.358       .  S
C252        C253   1.409       .  A
C252        F268   1.358       .  S
C253        C254   1.409   1_545  A
C254        F257   1.358       .  S
C255        C258   1.413   1_545  A
C255        C262   1.413       .  A
C258        C259   1.407       .  A
C258        F263   1.357       .  S
C259        C260   1.406       .  A
C259        F265   1.357       .  S
C260        C261   1.407   1_565  A
C261        C262   1.407       .  A
C261        F264   1.357       .  S
C262        F266   1.357       .  S
C269        C270   1.408       .  A
C269        C274   1.409       .  A
C269        F287   1.358       .  S
C270        C275   1.501       .  S
C270        C271   1.408   1_665  A
C271        C272   1.408       .  A
C271        F276   1.358       .  S
C272        C273   1.412   1_445  A
C272        F288   1.358       .  S
C273        C274   1.413       .  A
C274        F277   1.357       .  S
C275        C278   1.410   1_565  A
C275        C282   1.409   1_655  A
C278        C279   1.409       .  A
C278        F283   1.357       .  S
C279        C280   1.408   1_545  A
C279        F285   1.357       .  S
C280        C281   1.408   1_655  A
C281        C282   1.408       .  A
C281        F284   1.357       .  S
C282        F286   1.357       .  S
C289        C290   1.410   1_645  A
C289        C294   1.408       .  A
C289        F307   1.357       .  S
C290        C295   1.505       .  S
C290        C291   1.410       .  A
C291        C292   1.409       .  A
C291        F296   1.358       .  S
C292        C293   1.409   1_565  A
C292        F308   1.357       .  S
C293        C294   1.408   1_455  A
C294        F297   1.357       .  S
C295        C298   1.410   1_455  A
C295        C302   1.411   1_565  A
C298        C299   1.407       .  A
C298        F303   1.357       .  S
C299        C300   1.407   1_655  A
C299        F305   1.357       .  S
C300        C301   1.408   1_565  A
C301        C302   1.409       .  A
C301        F304   1.358       .  S
C302        F306   1.358       .  S
C309        C310   1.402       .  A
C309        C314   1.397       .  A
C309        F327   1.358       .  S
C310        C315   1.484       .  S
C310        C311   1.405       .  A
C311        C312   1.403       .  A
C311        F316   1.358       .  S
C312        C313   1.413       .  A
C312        F328   1.358       .  S
C313        C314   1.414       .  A
C314        F317   1.358       .  S
C315        C318   1.407       .  A
C315        C322   1.407       .  A
C318        C319   1.399       .  A
C318        F323   1.358       .  S
C319        C320   1.404       .  A
C319        F325   1.358       .  S
C320        C321   1.406       .  A
C321        C322   1.401       .  A
C321        F324   1.357       .  S
C322        F326   1.358       .  S
C329        C330   1.406       .  A
C329        C334   1.401       .  A
C329        F347   1.358       .  S
C330        C335   1.480       .  S
C330        C331   1.405       .  A
C331        C332   1.398       .  A
C331        F336   1.358       .  S
C332        C333   1.403       .  A
C332        F348   1.357       .  S
C333        C334   1.405       .  A
C334        F337   1.358       .  S
C335        C338   1.403       .  A
C335        C342   1.403       .  A
C338        C339   1.400       .  A
C338        F343   1.358       .  S
C339        C340   1.413       .  A
C339        F345   1.358       .  S
C340        C341   1.412       .  A
C341        C342   1.399       .  A
C341        F344   1.358       .  S
C342        F346   1.358       .  S
C349        C350   1.409   1_556  A
C349        C354   1.397       .  A
C349        F367   1.358       .  S
C350        C355   1.486       .  S
C350        C351   1.408       .  A
C351        C352   1.399       .  A
C351        F356   1.358       .  S
C352        C353   1.404   1_554  A
C352        F368   1.358       .  S
C353        C354   1.403       .  A
C354        F357   1.358       .  S
C355        C358   1.406   1_554  A
C355        C362   1.409       .  A
C358        C359   1.396       .  A
C358        F363   1.358       .  S
C359        C360   1.407   1_556  A
C359        F365   1.358       .  S
C360        C361   1.407       .  A
C361        C362   1.402       .  A
C361        F364   1.358       .  S
C362        F366   1.358       .  S
C369        C370   1.403   1_556  A
C369        C374   1.396       .  A
C369        F387   1.358       .  S
C370        C375   1.482       .  S
C370        C371   1.406       .  A
C371        C372   1.404       .  A
C371        F376   1.358       .  S
C372        C373   1.412       .  A
C372        F388   1.358       .  S
C373        C374   1.410   1_554  A
C374        F377   1.358       .  S
C375        C378   1.407       .  A
C375        C382   1.407       .  A
C378        C379   1.398       .  A
C378        F383   1.358       .  S
C379        C380   1.403       .  A
C379        F385   1.358   1_554  S
C380        C381   1.404       .  A
C381        C382   1.401       .  A
C381        F384   1.357       .  S
C382        F386   1.357       .  S
C389        C390   1.399       .  A
C389        C394   1.391       .  A
C389        F407   1.358       .  S
C390        C395   1.450       .  S
C390        C391   1.396       .  A
C391        C392   1.386       .  A
C391        F396   1.358       .  S
C392        C393   1.409       .  A
C392        F408   1.358       .  S
C393        C394   1.408       .  A
C394        F397   1.358       .  S
C395        C398   1.398       .  A
C395        C402   1.398       .  A
C398        C399   1.389       .  A
C398        F403   1.358       .  S
C399        C400   1.406       .  A
C399        F405   1.358       .  S
C400        C401   1.405       .  A
C401        C402   1.390       .  A
C401        F404   1.358       .  S
C402        F406   1.358       .  S
C409        C410   1.399       .  A
C409        C414   1.387       .  A
C409        F427   1.358       .  S
C410        C415   1.457       .  S
C410        C411   1.402       .  A
C411        C412   1.391       .  A
C411        F416   1.358       .  S
C412        C413   1.405       .  A
C412        F428   1.358       .  S
C413        C414   1.408       .  A
C414        F417   1.359       .  S
C415        C418   1.399       .  A
C415        C422   1.398       .  A
C418        C419   1.390       .  A
C418        F423   1.359       .  S
C419        C420   1.411       .  A
C419        F425   1.358       .  S
C420        C421   1.412       .  A
C421        C422   1.389       .  A
C421        F424   1.358       .  S
C422        F426   1.359       .  S
C429        C430   1.407   1_455  A
C429        C434   1.399       .  A
C429        F447   1.358       .  S
C430        C435   1.484       .  S
C430        C431   1.407       .  A
C431        C432   1.400       .  A
C431        F436   1.358       .  S
C432        C433   1.404       .  A
C432        F448   1.358       .  S
C433        C434   1.403   1_655  A
C434        F437   1.358       .  S
C435        C438   1.405   1_655  A
C435        C442   1.405       .  A
C438        C439   1.399       .  A
C438        F443   1.358       .  S
C439        C440   1.411   1_455  A
C439        F445   1.358       .  S
C440        C441   1.411       .  A
C441        C442   1.400       .  A
C441        F444   1.358       .  S
C442        F446   1.358       .  S
C449        C450   1.401   1_655  A
C449        C454   1.396       .  A
C449        F467   1.358       .  S
C450        C455   1.477       .  S
C450        C451   1.404       .  A
C451        C452   1.401       .  A
C451        F456   1.358       .  S
C452        C453   1.412       .  A
C452        F468   1.358       .  S
C453        C454   1.412   1_455  A
C454        F457   1.358       .  S
C455        C458   1.406   1_455  A
C455        C462   1.403       .  A
C458        C459   1.399       .  A
C458        F463   1.358       .  S
C459        C460   1.405   1_655  A
C459        F465   1.358       .  S
C460        C461   1.405       .  A
C461        C462   1.399       .  A
C461        F464   1.358       .  S
C462        F466   1.358       .  S
C469        C470   1.402       .  A
C469        C474   1.399       .  A
C469        F487   1.358       .  S
C470        C475   1.478       .  S
C470        C471   1.404       .  A
C471        C472   1.399       .  A
C471        F476   1.358       .  S
C472        C473   1.410       .  A
C472        F488   1.358       .  S
C473        C474   1.411       .  A
C474        F477   1.358       .  S
C475        C478   1.402       .  A
C475        C482   1.402       .  A
C478        C479   1.401       .  A
C478        F483   1.358       .  S
C479        C480   1.414       .  A
C479        F485   1.358       .  S
C480        C481   1.412       .  A
C481        C482   1.397       .  A
C481        F484   1.358       .  S
C482        F486   1.358       .  S
C489        C490   1.403       .  A
C489        C494   1.398       .  A
C489        F507   1.358       .  S
C490        C495   1.477       .  S
C490        C491   1.402       .  A
C491        C492   1.401       .  A
C491        F496   1.358       .  S
C492        C493   1.413       .  A
C492        F508   1.358       .  S
C493        C494   1.409       .  A
C494        F497   1.358       .  S
C495        C498   1.404       .  A
C495        C502   1.403       .  A
C498        C499   1.401       .  A
C498        F503   1.358       .  S
C499        C500   1.409       .  A
C499        F505   1.358       .  S
C500        C501   1.406       .  A
C501        C502   1.398       .  A
C501        F504   1.358       .  S
C502        F506   1.358       .  S
C509        C510   1.407       .  A
C509        C514   1.400       .  A
C509        F527   1.358       .  S
C510        C515   1.483       .  S
C510        C511   1.406   1_456  A
C511        C512   1.399       .  A
C511        F516   1.358       .  S
C512        C513   1.404   1_554  A
C512        F528   1.358       .  S
C513        C514   1.405   1_655  A
C514        F517   1.358       .  S
C515        C518   1.402   1_455  A
C515        C522   1.404   1_556  A
C518        C519   1.399       .  A
C518        F523   1.358       .  S
C519        C520   1.414   1_655  A
C519        F525   1.358       .  S
C520        C521   1.413   1_556  A
C521        C522   1.402       .  A
C521        F524   1.358       .  S
C522        F526   1.358       .  S
C529        C530   1.405   1_556  A
C529        C534   1.400       .  A
C529        F547   1.358       .  S
C530        C535   1.477       .  S
C530        C531   1.404   1_655  A
C531        C532   1.399       .  A
C531        F536   1.358       .  S
C532        C533   1.405   1_455  A
C532        F548   1.358       .  S
C533        C534   1.405   1_554  A
C534        F537   1.358       .  S
C535        C538   1.403   1_654  A
C535        C542   1.403       .  A
C538        C539   1.399       .  A
C538        F543   1.358       .  S
C539        C540   1.409   1_456  A
C539        F545   1.358       .  S
C540        C541   1.411       .  A
C541        C542   1.401       .  A
C541        F544   1.358       .  S
C542        F546   1.358       .  S
C549        C550   1.404   1_556  A
C549        C554   1.400       .  A
C549        F567   1.358       .  S
C550        C555   1.478       .  S
C550        C551   1.403       .  A
C551        C552   1.397       .  A
C551        F556   1.358       .  S
C552        C553   1.410       .  A
C552        F568   1.358       .  S
C553        C554   1.410   1_554  A
C554        F557   1.358       .  S
C555        C558   1.405       .  A
C555        C562   1.404       .  A
C558        C559   1.398       .  A
C558        F563   1.358       .  S
C559        C560   1.407       .  A
C559        F565   1.358       .  S
C560        C561   1.409       .  A
C561        C562   1.399       .  A
C561        F564   1.358       .  S
C562        F566   1.358       .  S
C569        C570   1.405       .  A
C569        C574   1.398       .  A
C569        F587   1.358       .  S
C570        C575   1.480       .  S
C570        C571   1.404       .  A
C571        C572   1.400       .  A
C571        F576   1.358       .  S
C572        C573   1.411       .  A
C572        F588   1.358       .  S
C573        C574   1.407       .  A
C574        F577   1.358   1_556  S
C575        C578   1.403   1_556  A
C575        C582   1.405       .  A
C578        C579   1.395       .  A
C578        F583   1.358       .  S
C579        C580   1.410   1_554  A
C579        F585   1.358       .  S
C580        C581   1.410       .  A
C581        C582   1.402       .  A
C581        F584   1.358       .  S
C582        F586   1.358       .  S
C589        C590   1.403   1_455  A
C589        C594   1.390       .  A
C589        F607   1.358       .  S
C590        C595   1.461       .  S
C590        C591   1.401       .  A
C591        C592   1.394       .  A
C591        F596   1.358       .  S
C592        C593   1.407       .  A
C592        F608   1.358       .  S
C593        C594   1.403   1_655  A
C594        F597   1.358       .  S
C595        C598   1.400       .  A
C595        C602   1.401       .  A
C598        C599   1.393       .  A
C598        F603   1.358       .  S
C599        C600   1.409       .  A
C599        F605   1.358       .  S
C600        C601   1.407       .  A
C601        C602   1.391       .  A
C601        F604   1.358       .  S
C602        F606   1.358       .  S
C609        C610   1.400   1_655  A
C609        C614   1.390       .  A
C609        F627   1.359       .  S
C610        C615   1.462       .  S
C610        C611   1.399       .  A
C611        C612   1.392       .  A
C611        F616   1.358       .  S
C612        C613   1.412       .  A
C612        F628   1.358       .  S
C613        C614   1.411   1_455  A
C614        F617   1.358       .  S
C615        C618   1.403   1_455  A
C615        C622   1.404       .  A
C618        C619   1.388       .  A
C618        F623   1.358       .  S
C619        C620   1.401   1_655  A
C619        F625   1.359       .  S
C620        C621   1.401       .  A
C621        C622   1.394       .  A
C621        F624   1.358       .  S
C622        F626   1.358       .  S
