geometry optimzed in LAMMPS
_audit_creation_date              2020-11-30 
_audit_creation_method            'lammps2cif' 
_symmetry_space_group_name_H-M    'P1' 
_symmetry_Int_Tables_number       1 
_symmetry_cell_setting            triclinic 
loop_ 
_symmetry_equiv_pos_as_xyz 
  x,y,z 
_cell_length_a                    28.748037978233544 
_cell_length_b                    28.792559514197396 
_cell_length_c                    24.24792342832302 
_cell_angle_alpha                 90.12622355881798 
_cell_angle_beta                  89.84928347187164 
_cell_angle_gamma                 88.80539671212439 
loop_ 
_atom_site_label 
_atom_site_type_symbol 
_atom_site_fract_x 
_atom_site_fract_y 
_atom_site_fract_z 
_atom_site_charge 
C1          C  0.49987743  0.99830713  0.47237916     0.00510
C2          C  0.49967301  0.99891016  0.02845242     0.00500
C3          C  0.50747822  0.20664650  0.25096699     0.03070
C4          C  0.50806884  0.18212123  0.30105886    -0.13080
C5          C  0.50892088  0.13346358  0.30098898     0.00570
C6          C  0.51033305  0.10942129  0.25077805    -0.11610
C7          C  0.51127056  0.13341175  0.20071233     0.03060
C8          C  0.50937601  0.18205720  0.20079834    -0.11030
H9          H  0.50711689  0.20077632  0.33988537     0.08660
H10         H  0.51016049  0.07174297  0.25065693     0.06190
H11         H  0.50923396  0.20069873  0.16201412     0.06030
C12         C  0.48610028  0.79082974  0.24975391     0.03070
C13         C  0.48787180  0.81450484  0.30046981    -0.13080
C14         C  0.48847952  0.86313554  0.30171962     0.00570
C15         C  0.48725215  0.88799200  0.25217119    -0.11610
C16         C  0.48555466  0.86485063  0.20147571     0.03060
C17         C  0.48569719  0.81620938  0.20025907    -0.11030
H18         H  0.48986590  0.79509997  0.33865847     0.08660
H19         H  0.48852472  0.92562090  0.25303939     0.06190
H20         H  0.48601392  0.79822595  0.16096354     0.06030
C21         C  0.00080474  0.50007526  0.47283001     0.00510
C22         C  0.00095825  0.50172674  0.02906175     0.00500
C23         C  0.20895763  0.48057974  0.24973269     0.03070
C24         C  0.18364744  0.48049548  0.20015535    -0.13080
C25         C  0.13502079  0.47803714  0.20100419     0.00570
C26         C  0.11152284  0.47827390  0.25164413    -0.11610
C27         C  0.13618101  0.48020630  0.30121328     0.03060
C28         C  0.18485390  0.48078300  0.30031646    -0.11030
H29         H  0.20155113  0.48322428  0.16098929     0.08660
H30         H  0.07378642  0.47887606  0.25247600     0.06190
H31         H  0.20382985  0.48245243  0.33880466     0.06030
C32         C  0.79305926  0.52414140  0.25029733     0.03070
C33         C  0.81732291  0.51753709  0.30019535    -0.13080
C34         C  0.86600523  0.51828703  0.30109660     0.00570
C35         C  0.89077877  0.52331363  0.25183100    -0.11610
C36         C  0.86729139  0.52816770  0.20165576     0.03060
C37         C  0.81859336  0.52921400  0.20105043    -0.11030
H38         H  0.79850938  0.51149416  0.33819052     0.08660
H39         H  0.92851015  0.52186133  0.25236584     0.06190
H40         H  0.80072349  0.53306964  0.16199000     0.06030
O41         O  0.50417857  0.42935457  0.29371323    -0.73000
O42         O  0.49852540  0.56866841  0.29381289    -0.73980
O43         O  0.43164682  0.49755746  0.29530092    -0.62600
O44         O  0.57127223  0.50160847  0.29177000    -0.71010
O45         O  0.56969086  0.50331811  0.20042166    -0.70570
O46         O  0.43063180  0.49406193  0.20382589    -0.61820
O47         O  0.49419933  0.56848531  0.20236412    -0.74330
O48         O  0.50595689  0.42899982  0.20214862    -0.73110
Cu49       Cu  0.50147996  0.49920529  0.29683915     1.04560
Cu50       Cu  0.50008504  0.49868242  0.19898570     1.04330
C51         C  0.50601607  0.40723562  0.24800500     0.93190
C52         C  0.49546777  0.59047079  0.24815932     0.92330
C53         C  0.40920851  0.49489059  0.25004046     0.84480
C54         C  0.59252681  0.50414900  0.24550586     0.90750
C55         C  0.72116540  0.49423374  0.20740983    -0.20360
C56         C  0.74134411  0.52176944  0.24849498    -0.06930
C57         C  0.71177433  0.54513720  0.28689099     0.13940
C58         C  0.66380829  0.53705096  0.28591731    -0.20420
C59         C  0.64374177  0.50964826  0.24471659    -0.06940
C60         C  0.67284610  0.48927636  0.20374823     0.13930
C61         C  0.65371488  0.46163445  0.15647467    -0.23770
H62         H  0.74341272  0.47626366  0.17780263     0.15210
H63         H  0.64154544  0.55421652  0.31621737     0.15240
C64         C  0.72871794  0.58075040  0.32745369    -0.23720
H65         H  0.68176299  0.44638867  0.13007726     0.05460
H66         H  0.63169241  0.48438654  0.12993385     0.08680
H67         H  0.63288575  0.43284773  0.17256429     0.08680
H68         H  0.76546981  0.59005842  0.32085361     0.08660
H69         H  0.72435030  0.56766663  0.37014879     0.08670
H70         H  0.70785021  0.61341089  0.32283030     0.05440
C71         C  0.33755821  0.45512179  0.22246427    -0.20360
C72         C  0.35807791  0.49184470  0.25086023    -0.06930
C73         C  0.32959660  0.52477271  0.27892316     0.13940
C74         C  0.28108126  0.52035916  0.27737678    -0.20420
C75         C  0.26040820  0.48355605  0.24901689    -0.06940
C76         C  0.28910181  0.45006191  0.22187896     0.13930
C77         C  0.26922126  0.40776360  0.19456864    -0.23770
H78         H  0.35972738  0.42968495  0.20159370     0.15210
H79         H  0.25904704  0.54592746  0.29820650     0.15240
C80         C  0.35012612  0.56530523  0.30908164    -0.23720
H81         H  0.29705776  0.38346776  0.17969412     0.05460
H82         H  0.24797546  0.41783998  0.15832767     0.08680
H83         H  0.24741267  0.38877405  0.22451343     0.08680
H84         H  0.37150426  0.58592668  0.28025517     0.08660
H85         H  0.37221347  0.55260676  0.34357678     0.08670
H86         H  0.32270334  0.58870046  0.32676303     0.05440
C87         C  0.04705885  0.45033229  0.09047381    -0.20360
C88         C  0.04382930  0.49287823  0.06234393    -0.06930
C89         C  0.07544948  0.52830447  0.07589144     0.13940
C90         C  0.10730528  0.52103584  0.11886678    -0.20420
C91         C  0.10781525  0.47984804  0.14941208    -0.06940
C92         C  0.07866943  0.44332978  0.13372616     0.13930
C93         C  0.08036176  0.39722824  0.16306766    -0.23770
H94         H  0.02278531  0.42327831  0.08087693     0.15210
H95         H  0.12997810  0.54892914  0.13090774     0.15240
C96         C  0.07526255  0.57511347  0.04862527    -0.23720
H97         H  0.05648926  0.37198859  0.14399585     0.05460
H98         H  0.06994470  0.40163388  0.20685427     0.08680
H99         H  0.11623355  0.38225311  0.16102626     0.08680
H100        H  0.04849870  0.57853949  0.01663914     0.08660
H101        H  0.10962589  0.58085317  0.02906520     0.08670
H102        H  0.06852445  0.60267519  0.07992285     0.05440
C103        C  0.09514336  0.44617059  0.38099795    -0.20360
C104        C  0.10997097  0.48575191  0.35320370    -0.06930
C105        C  0.09434961  0.53002797  0.37082662     0.13940
C106        C  0.06139627  0.53356288  0.41332302    -0.20420
C107        C  0.04430296  0.49395040  0.43959595    -0.06940
C108        C  0.06276981  0.44964437  0.42435053     0.13930
C109        C  0.04796178  0.40515035  0.45078083    -0.23770
H110        H  0.10738228  0.41219063  0.36720932     0.15210
H111        H  0.04687881  0.56742531  0.42360698     0.15240
C112        C  0.11091289  0.57344549  0.34301035    -0.23720
H113        H  0.03147220  0.38262631  0.41949906     0.05460
H114        H  0.02314502  0.41103870  0.48476149     0.08680
H115        H  0.07889126  0.38660492  0.46798140     0.08680
H116        H  0.10115757  0.57308456  0.29874933     0.08660
H117        H  0.14933840  0.57525088  0.34652957     0.08670
H118        H  0.09541577  0.60530172  0.36209028     0.05440
C119        C  0.95565039  0.55431427  0.09069289    -0.20360
C120        C  0.95819152  0.51157692  0.06253653    -0.06930
C121        C  0.92598107  0.47676793  0.07635024     0.13940
C122        C  0.89397896  0.48495672  0.11917212    -0.20420
C123        C  0.89417215  0.52624745  0.14971603    -0.06940
C124        C  0.92420015  0.56200200  0.13422416     0.13930
C125        C  0.92379590  0.60779887  0.16439662    -0.23770
H126        H  0.98034577  0.58092959  0.08095140     0.15210
H127        H  0.87077970  0.45753905  0.13136031     0.15240
C128        C  0.92589072  0.42952209  0.04990629    -0.23720
H129        H  0.94873776  0.63235937  0.14600386     0.05460
H130        H  0.93356226  0.60248738  0.20819201     0.08680
H131        H  0.88844349  0.62397558  0.16240280     0.08680
H132        H  0.95297763  0.42517649  0.01824811     0.08660
H133        H  0.89165433  0.42385564  0.03018597     0.08670
H134        H  0.93199323  0.40242722  0.08175627     0.05440
C135        C  0.94080721  0.46550056  0.41320039    -0.20360
C136        C  0.95738254  0.50543683  0.43951448    -0.06930
C137        C  0.93861595  0.54947511  0.42407177     0.13940
C138        C  0.90634364  0.55237044  0.38085414    -0.20420
C139        C  0.89208135  0.51256644  0.35297947    -0.06940
C140        C  0.90814233  0.46852681  0.37047917     0.13930
C141        C  0.89236871  0.42492264  0.34234909    -0.23770
H142        H  0.95543754  0.43179940  0.42373463     0.15210
H143        H  0.89381766  0.58618660  0.36706988     0.15240
C144        C  0.95315212  0.59438093  0.44986355    -0.23720
H145        H  0.90825149  0.39326760  0.36120917     0.05460
H146        H  0.90232931  0.42554147  0.29809546     0.08680
H147        H  0.85397077  0.42255693  0.34582364     0.08680
H148        H  0.96951704  0.61660135  0.41819012     0.08660
H149        H  0.97800515  0.58911759  0.48370607     0.08670
H150        H  0.92211754  0.61296127  0.46703892     0.05440
C151        C  0.52683882  0.71627104  0.27046234    -0.20360
C152        C  0.48763566  0.73943586  0.24861800    -0.06930
C153        C  0.45073895  0.71335133  0.22692408     0.13940
C154        C  0.45449374  0.66463118  0.22652127    -0.20420
C155        C  0.49366599  0.64160016  0.24845875    -0.06940
C156        C  0.53028844  0.66760386  0.27072726     0.13930
C157        C  0.57356718  0.64412883  0.29328399    -0.23770
H158        H  0.55501357  0.73645660  0.28703333     0.15210
H159        H  0.42635321  0.64433839  0.21005539     0.15240
C160        C  0.40669417  0.73662296  0.20626743    -0.23720
H161        H  0.59940148  0.66974209  0.30729179     0.05460
H162        H  0.59017187  0.62211951  0.26079261     0.08680
H163        H  0.56458028  0.62212840  0.32911810     0.08680
H164        H  0.41418865  0.75844940  0.16984567     0.08660
H165        H  0.39111439  0.75867543  0.23939921     0.08670
H166        H  0.38051820  0.71083514  0.19370855     0.05440
C167        C  0.54324745  0.28123338  0.22622983    -0.20360
C168        C  0.50612541  0.25805711  0.25074610    -0.06930
C169        C  0.46843692  0.28416345  0.27342681     0.13940
C170        C  0.46971606  0.33290796  0.27261684    -0.20420
C171        C  0.50700669  0.35599226  0.24832547    -0.06940
C172        C  0.54404736  0.32988622  0.22458748     0.13930
C173        C  0.58510681  0.35323472  0.19912174    -0.23770
H174        H  0.57193845  0.26106598  0.20867699     0.15210
H175        H  0.44103373  0.35318356  0.29002109     0.15240
C176        C  0.42598982  0.26094835  0.29623646    -0.23720
H177        H  0.61163259  0.32767469  0.18386580     0.05460
H178        H  0.60174751  0.37551117  0.23052295     0.08680
H179        H  0.57345617  0.37468290  0.16358947     0.08680
H180        H  0.43516343  0.24009822  0.33313288     0.08660
H181        H  0.41096085  0.23801141  0.26432119     0.08670
H182        H  0.39869945  0.28675805  0.30879095     0.05440
C183        C  0.47159158  0.10550678  0.11669935    -0.20360
C184        C  0.51202820  0.10664155  0.14873315    -0.06930
C185        C  0.55077190  0.07848184  0.13401174     0.14020
C186        C  0.54680709  0.04702488  0.09030222    -0.20420
C187        C  0.50502612  0.04258469  0.06109003    -0.06940
C188        C  0.46758541  0.07402978  0.07262130     0.13930
C189        C  0.42331758  0.07491175  0.03956355    -0.23770
H190        H  0.44237137  0.12810540  0.12769870     0.15210
H191        H  0.57590432  0.02404692  0.08097254     0.15240
C192        C  0.59601600  0.08083449  0.16512585    -0.23720
H193        H  0.39660041  0.09863591  0.05810124     0.05460
H194        H  0.40811636  0.04008185  0.03672937     0.08680
H195        H  0.43053311  0.08812499  0.99771829     0.08680
H196        H  0.59099250  0.07018254  0.20862303     0.08660
H197        H  0.60894675  0.11688932  0.16404327     0.08670
H198        H  0.62320914  0.05750913  0.14683245     0.05440
C199        C  0.53566271  0.07071682  0.43536742    -0.20360
C200        C  0.49705563  0.04164491  0.43864794    -0.06930
C201        C  0.45948278  0.04903123  0.40175944     0.13940
C202        C  0.46377021  0.08096636  0.35895180    -0.20420
C203        C  0.50410837  0.10668825  0.35246721    -0.06940
C204        C  0.54003230  0.10265615  0.39188071     0.13930
C205        C  0.58414544  0.12948992  0.38591409    -0.23770
H206        H  0.56395189  0.06608136  0.46436433     0.15210
H207        H  0.43572681  0.08504158  0.32938106     0.15240
C208        C  0.41403909  0.02423039  0.40660554    -0.23720
H209        H  0.60935722  0.12091516  0.41918601     0.05460
H210        H  0.57615886  0.16731510  0.38793412     0.08680
H211        H  0.60093141  0.12106769  0.34571554     0.08680
H212        H  0.38483902  0.05010528  0.40698108     0.08660
H213        H  0.41131707  0.00436482  0.44536958     0.08670
H214        H  0.40979135  0.00051016  0.37088785     0.05440
C215        C  0.45222406  0.95256276  0.09209256    -0.20360
C216        C  0.49401278  0.95602273  0.06237816    -0.06930
C217        C  0.53107106  0.92425977  0.07410219     0.13940
C218        C  0.52641502  0.89293960  0.11813890    -0.20420
C219        C  0.48579663  0.89236974  0.15016123    -0.06940
C220        C  0.44767585  0.92136068  0.13584890     0.13930
C221        C  0.40243610  0.92007044  0.16738093    -0.23770
H222        H  0.42351212  0.97598002  0.08296679     0.15210
H223        H  0.55522911  0.86987902  0.12900133     0.15240
C224        C  0.57566110  0.92292000  0.04137036    -0.23720
H225        H  0.37572688  0.94398584  0.14944653     0.05460
H226        H  0.40784088  0.93064603  0.21086544     0.08680
H227        H  0.38867258  0.88433391  0.16631161     0.08680
H228        H  0.59112681  0.95763695  0.03869465     0.08660
H229        H  0.56881362  0.90959025  0.99947467     0.08670
H230        H  0.60203374  0.89910060  0.06012908     0.05440
C231        C  0.46397752  0.92525278  0.43741575    -0.20360
C232        C  0.50263947  0.95429253  0.43972111    -0.06930
C233        C  0.53997875  0.94636130  0.40240721     0.13940
C234        C  0.53515657  0.91429724  0.35969774    -0.20420
C235        C  0.49447105  0.88901930  0.35376260    -0.06940
C236        C  0.45901728  0.89322094  0.39400633     0.13930
C237        C  0.41469290  0.86661792  0.38894550    -0.23770
H238        H  0.43595461  0.93018845  0.46691396     0.15210
H239        H  0.56289987  0.91001371  0.32957615     0.15240
C240        C  0.58558305  0.97094111  0.40655068    -0.23720
H241        H  0.38991645  0.87534584  0.42281988     0.05460
H242        H  0.42251594  0.82875909  0.39066246     0.08680
H243        H  0.39746961  0.87508334  0.34916976     0.08680
H244        H  0.61463350  0.94490109  0.40679037     0.08660
H245        H  0.58851043  0.99115536  0.44514484     0.08670
H246        H  0.58984523  0.99431491  0.37060906     0.05440
C247        C  0.49985491  0.99829476  0.97238206     0.00510
C248        C  0.49969454  0.99892426  0.52844933     0.00500
C249        C  0.50744461  0.20664729  0.75098543     0.03070
C250        C  0.50803342  0.18211759  0.80107426    -0.13080
C251        C  0.50888437  0.13345984  0.80099832     0.00570
C252        C  0.51029661  0.10942185  0.75078448    -0.11610
C253        C  0.51123594  0.13341700  0.70072199     0.03060
C254        C  0.50934239  0.18206224  0.70081390    -0.11030
H255        H  0.50708389  0.20076916  0.83990317     0.08660
H256        H  0.51012658  0.07174347  0.75065852     0.06190
H257        H  0.50920412  0.20070702  0.66203190     0.06030
C258        C  0.48612895  0.79083035  0.74973454     0.03070
C259        C  0.48788715  0.81450358  0.80045254    -0.13080
C260        C  0.48849308  0.86313420  0.80170548     0.00570
C261        C  0.48727727  0.88799247  0.75215817    -0.11610
C262        C  0.48559298  0.86485276  0.70146083     0.03060
C263        C  0.48573761  0.81621167  0.70024099    -0.11030
H264        H  0.48987134  0.79509741  0.83864089     0.08660
H265        H  0.48854620  0.92562154  0.75302902     0.06190
H266        H  0.48606264  0.79822981  0.66094441     0.06030
C267        C  0.00080575  0.50007649  0.97283034     0.00510
C268        C  0.00095741  0.50172604  0.52906145     0.00500
C269        C  0.20895772  0.48058534  0.74973210     0.03070
C270        C  0.18364743  0.48049986  0.70015484    -0.13080
C271        C  0.13502088  0.47803946  0.70100383     0.00570
C272        C  0.11152311  0.47827538  0.75164391    -0.11610
C273        C  0.13618136  0.48020899  0.80121294     0.03060
C274        C  0.18485415  0.48078777  0.80031593    -0.11030
H275        H  0.20155091  0.48322924  0.66098872     0.08660
H276        H  0.07378670  0.47887615  0.75247596     0.06190
H277        H  0.20383012  0.48245808  0.83880405     0.06030
C278        C  0.79305968  0.52413838  0.75029903     0.03070
C279        C  0.81732414  0.51753662  0.80019679    -0.13080
C280        C  0.86600633  0.51828829  0.80109704     0.00570
C281        C  0.89077903  0.52331498  0.75183085    -0.11610
C282        C  0.86729083  0.52816689  0.70165582     0.03060
C283        C  0.81859273  0.52921053  0.70105133    -0.11030
H284        H  0.79851126  0.51149400  0.83819251     0.08660
H285        H  0.92851044  0.52186399  0.75236505     0.06190
H286        H  0.80072196  0.53306374  0.66199115     0.06030
O287        O  0.50417205  0.42935878  0.79372759    -0.73000
O288        O  0.49853121  0.56867249  0.79380874    -0.73980
O289        O  0.43164595  0.49756736  0.79530409    -0.62600
O290        O  0.57127222  0.50160677  0.79177658    -0.71010
O291        O  0.56969287  0.50330826  0.70042794    -0.70570
O292        O  0.43063303  0.49406432  0.70382944    -0.61820
O293        O  0.49420759  0.56848194  0.70235985    -0.74330
O294        O  0.50595211  0.42899611  0.70216304    -0.73110
Cu295      Cu  0.50147944  0.49920974  0.79684419     1.04560
Cu296      Cu  0.50008674  0.49867849  0.69899073     1.04330
C297        C  0.50600837  0.40723588  0.74802205     0.93190
C298        C  0.49547756  0.59047121  0.74815239     0.92330
C299        C  0.40920857  0.49489782  0.75004320     0.84480
C300        C  0.59252792  0.50414183  0.74551263     0.90750
C301        C  0.72116666  0.49422342  0.70741762    -0.20360
C302        C  0.74134485  0.52176408  0.74849830    -0.06930
C303        C  0.71177502  0.54513421  0.78689219     0.13940
C304        C  0.66380926  0.53704660  0.78592046    -0.20420
C305        C  0.64374304  0.50963950  0.74472372    -0.06940
C306        C  0.67284752  0.48926364  0.70375816     0.13930
C307        C  0.65371665  0.46161476  0.65649018    -0.23770
H308        H  0.74341435  0.47625141  0.67781239     0.15210
H309        H  0.64154634  0.55421461  0.81621852     0.15240
C310        C  0.72871829  0.58075119  0.82745039    -0.23720
H311        H  0.68176497  0.44636653  0.63009501     0.05460
H312        H  0.63169300  0.48436240  0.62994548     0.08680
H313        H  0.63288893  0.43282929  0.67258582     0.08680
H314        H  0.76547008  0.59005897  0.82084912     0.08660
H315        H  0.72435090  0.56767109  0.87014713     0.08670
H316        H  0.70785015  0.61341101  0.82282307     0.05440
C317        C  0.33755877  0.45512944  0.72246519    -0.20360
C318        C  0.35807784  0.49185260  0.75086141    -0.06930
C319        C  0.32959585  0.52478053  0.77892356     0.13940
C320        C  0.28108053  0.52036649  0.77737624    -0.20420
C321        C  0.26040820  0.48356295  0.74901628    -0.06940
C322        C  0.28910248  0.45006906  0.72187899     0.13930
C323        C  0.26922281  0.40777037  0.69456857    -0.23770
H324        H  0.35972839  0.42969257  0.70159534     0.15210
H325        H  0.25904578  0.54593457  0.79820555     0.15240
C326        C  0.35012457  0.56531332  0.80908227    -0.23720
H327        H  0.29705976  0.38347477  0.67969468     0.05460
H328        H  0.24797737  0.41784636  0.65832715     0.08680
H329        H  0.24741407  0.38878067  0.72451308     0.08680
H330        H  0.37150319  0.58593471  0.78025620     0.08660
H331        H  0.37221126  0.55261518  0.84357816     0.08670
H332        H  0.32270132  0.58870852  0.82676269     0.05440
C333        C  0.04705914  0.45033253  0.59047369    -0.20360
C334        C  0.04382871  0.49287835  0.56234363    -0.06930
C335        C  0.07544830  0.52830520  0.57589098     0.13940
C336        C  0.10730425  0.52103731  0.61886632    -0.20420
C337        C  0.10781510  0.47984961  0.64941179    -0.06940
C338        C  0.07866998  0.44333073  0.63372599     0.13930
C339        C  0.08036340  0.39722919  0.66306748    -0.23770
H340        H  0.02278613  0.42327805  0.58087694     0.15210
H341        H  0.12997655  0.54893110  0.63090710     0.15240
C342        C  0.07526070  0.57511408  0.54862455    -0.23720
H343        H  0.05649142  0.37198902  0.64399574     0.05460
H344        H  0.06994635  0.40163458  0.70685413     0.08680
H345        H  0.11623549  0.38225485  0.66102596     0.08680
H346        H  0.04849708  0.57853941  0.51663814     0.08660
H347        H  0.10962405  0.58085432  0.52906473     0.08670
H348        H  0.06852190  0.60267583  0.57992190     0.05440
C349        C  0.09514453  0.44617276  0.88099794    -0.20360
C350        C  0.10997139  0.48575426  0.85320343    -0.06930
C351        C  0.09434957  0.53003015  0.87082634     0.13940
C352        C  0.06139661  0.53356471  0.91332315    -0.20420
C353        C  0.04430396  0.49395204  0.93959629    -0.06940
C354        C  0.06277116  0.44964619  0.92435075     0.13930
C355        C  0.04796354  0.40515201  0.95078104    -0.23770
H356        H  0.10738380  0.41219293  0.86720928     0.15210
H357        H  0.04687883  0.56742699  0.92360726     0.15240
C358        C  0.11091184  0.57344786  0.84300957    -0.23720
H359        H  0.03147450  0.38262767  0.91949917     0.05460
H360        H  0.02314636  0.41104005  0.98476138     0.08680
H361        H  0.07889315  0.38660703  0.96798196     0.08680
H362        H  0.10115613  0.57308653  0.79874868     0.08660
H363        H  0.14933733  0.57525395  0.84652830     0.08670
H364        H  0.09541433  0.60530392  0.86208947     0.05440
C365        C  0.95564879  0.55431373  0.59069180    -0.20360
C366        C  0.95819061  0.51157603  0.56253624    -0.06930
C367        C  0.92598070  0.47676672  0.57635067     0.13940
C368        C  0.89397860  0.48495550  0.61917256    -0.20420
C369        C  0.89417115  0.52624663  0.64971573    -0.06940
C370        C  0.92419846  0.56200153  0.63422299     0.13930
C371        C  0.92379336  0.60779892  0.66439436    -0.23770
H372        H  0.98034370  0.58092933  0.58094975     0.15210
H373        H  0.87077988  0.45753756  0.63136137     0.15240
C374        C  0.92589089  0.42952058  0.54990748    -0.23720
H375        H  0.94873461  0.63235965  0.64600086     0.05460
H376        H  0.93356001  0.60248843  0.70818982     0.08680
H377        H  0.88844062  0.62397486  0.66240034     0.08680
H378        H  0.95297745  0.42517517  0.51824892     0.08660
H379        H  0.89165440  0.42385333  0.53018777     0.08670
H380        H  0.93199422  0.40242616  0.58175779     0.05440
C381        C  0.94080909  0.46550184  0.91319987    -0.20360
C382        C  0.95738370  0.50543803  0.93951474    -0.06930
C383        C  0.93861676  0.54947629  0.92407259     0.13940
C384        C  0.90634463  0.55237170  0.88085478    -0.20420
C385        C  0.89208308  0.51256778  0.85297937    -0.06940
C386        C  0.90814455  0.46852814  0.87047841     0.13930
C387        C  0.89237181  0.42492405  0.84234740    -0.23770
H388        H  0.95543978  0.43180073  0.92373372     0.15210
H389        H  0.89381817  0.58618784  0.86707105     0.15240
C390        C  0.95315240  0.59438197  0.94986520    -0.23720
H391        H  0.90825497  0.39326901  0.86120704     0.05460
H392        H  0.90233268  0.42554359  0.79809386     0.08680
H393        H  0.85397390  0.42255766  0.84582154     0.08680
H394        H  0.96951683  0.61660308  0.91819209     0.08660
H395        H  0.97800579  0.58911855  0.98370740     0.08670
H396        H  0.92211764  0.61296164  0.96704112     0.05440
C397        C  0.52685772  0.71626915  0.77045476    -0.20360
C398        C  0.48766171  0.73943665  0.74859686    -0.06930
C399        C  0.45076785  0.71335492  0.72689120     0.13940
C400        C  0.45451774  0.66463454  0.72649279    -0.20420
C401        C  0.49368212  0.64160068  0.74844560    -0.06940
C402        C  0.53030250  0.66760182  0.77072358     0.13930
C403        C  0.57357435  0.64412397  0.79329461    -0.23770
H404        H  0.55503039  0.73645273  0.78703428     0.15210
H405        H  0.42637890  0.64434385  0.71001903     0.15240
C406        C  0.40673052  0.73662988  0.70621763    -0.23720
H407        H  0.59940854  0.66973549  0.80730729     0.05460
H408        H  0.59018333  0.62211095  0.76080971     0.08680
H409        H  0.56457820  0.62212704  0.82912834     0.08680
H410        H  0.41423639  0.75845369  0.66979708     0.08660
H411        H  0.39114456  0.75868548  0.73934255     0.08670
H412        H  0.38055510  0.71084413  0.69365106     0.05440
C413        C  0.54322419  0.28122931  0.72625135    -0.20360
C414        C  0.50609998  0.25805798  0.75076985    -0.06930
C415        C  0.46841674  0.28416928  0.77345490     0.13940
C416        C  0.46970226  0.33291354  0.77264413    -0.20420
C417        C  0.50699414  0.35599267  0.74834815    -0.06940
C418        C  0.54403052  0.32988174  0.72460842     0.13930
C419        C  0.58509229  0.35322447  0.69914005    -0.23770
H420        H  0.57191157  0.26105820  0.70869610     0.15210
H421        H  0.44102346  0.35319300  0.79005028     0.15240
C422        C  0.42596812  0.26096006  0.79626927    -0.23720
H423        H  0.61161426  0.32766084  0.68388333     0.05460
H424        H  0.60173704  0.37549893  0.73054014     0.08680
H425        H  0.57344358  0.37467383  0.66360792     0.08680
H426        H  0.43514180  0.24010894  0.83316487     0.08660
H427        H  0.41093348  0.23802513  0.76435584     0.08670
H428        H  0.39868215  0.28677343  0.80882662     0.05440
C429        C  0.47157185  0.10550615  0.61670138    -0.20360
C430        C  0.51200547  0.10665206  0.64873937    -0.06930
C431        C  0.55076053  0.07850876  0.63401698     0.14020
C432        C  0.54681031  0.04705415  0.59030290    -0.20420
C433        C  0.50503288  0.04260080  0.56108700    -0.06940
C434        C  0.46758064  0.07403211  0.57261804     0.13930
C435        C  0.42331649  0.07490252  0.53955347    -0.23770
H436        H  0.44234300  0.12809343  0.62770091     0.15210
H437        H  0.57591642  0.02408777  0.58097291     0.15240
C438        C  0.59600117  0.08087569  0.66513595    -0.23720
H439        H  0.39659095  0.09861929  0.55808753     0.05460
H440        H  0.40812528  0.04006833  0.53671597     0.08680
H441        H  0.43053337  0.08811803  0.49770948     0.08680
H442        H  0.59097808  0.07021867  0.70863150     0.08660
H443        H  0.60891852  0.11693569  0.66405877     0.08670
H444        H  0.62320401  0.05756155  0.64684280     0.05440
C445        C  0.53564039  0.07070345  0.93536658    -0.20360
C446        C  0.49703225  0.04163343  0.93865243    -0.06930
C447        C  0.45945515  0.04902310  0.90177077     0.13940
C448        C  0.46373889  0.08095954  0.85896372    -0.20420
C449        C  0.50407728  0.10668016  0.85247409    -0.06940
C450        C  0.54000614  0.10264421  0.89188085     0.13930
C451        C  0.58412003  0.12947586  0.88590796    -0.23770
H452        H  0.56393231  0.06606684  0.96435939     0.15210
H453        H  0.43569187  0.08503768  0.82939829     0.15240
C454        C  0.41401003  0.02422600  0.90662561    -0.23720
H455        H  0.60933571  0.12089820  0.91917476     0.05460
H456        H  0.57613574  0.16730135  0.88793168     0.08680
H457        H  0.60090038  0.12105455  0.84570588     0.08680
H458        H  0.38481214  0.05010331  0.90700800     0.08660
H459        H  0.41129220  0.00435990  0.94538983     0.08670
H460        H  0.40975493  0.00050703  0.87090818     0.05440
C461        C  0.45225189  0.95255974  0.59207843    -0.20360
C462        C  0.49404385  0.95603560  0.56237435    -0.06930
C463        C  0.53111058  0.92428395  0.57410233     0.13940
C464        C  0.52645921  0.89296025  0.61813632    -0.20420
C465        C  0.48583570  0.89237435  0.65014870    -0.06940
C466        C  0.44770703  0.92135211  0.63582932     0.13930
C467        C  0.40246192  0.92004164  0.66734838    -0.23770
H468        H  0.42353336  0.97596732  0.58294756     0.15210
H469        H  0.55527930  0.86990881  0.62900323     0.15240
C470        C  0.57570317  0.92295902  0.54137486    -0.23720
H471        H  0.37574738  0.94394884  0.64940990     0.05460
H472        H  0.40785424  0.93061492  0.71083603     0.08680
H473        H  0.38871237  0.88429967  0.66626990     0.08680
H474        H  0.59116005  0.95768037  0.53870492     0.08660
H475        H  0.56886174  0.90963274  0.49947603     0.08670
H476        H  0.60208031  0.89914413  0.56013274     0.05440
C477        C  0.46395827  0.92524534  0.93739844    -0.20360
C478        C  0.50262147  0.95428241  0.93972079    -0.06930
C479        C  0.53996929  0.94635233  0.90241834     0.13940
C480        C  0.53515634  0.91429124  0.85970427    -0.20420
C481        C  0.49447112  0.88901597  0.85375212    -0.06940
C482        C  0.45900691  0.89321741  0.89398304     0.13930
C483        C  0.41468186  0.86661818  0.88890215    -0.23770
H484        H  0.43592914  0.93017927  0.96688865     0.15210
H485        H  0.56290716  0.91000797  0.82959232     0.15240
C486        C  0.58557391  0.97092951  0.90657948    -0.23720
H487        H  0.38989704  0.87534515  0.92276830     0.05460
H488        H  0.42250162  0.82875866  0.89061700     0.08680
H489        H  0.39746985  0.87508832  0.84912094     0.08680
H490        H  0.61462284  0.94488788  0.90682852     0.08660
H491        H  0.58849263  0.99114277  0.94517528     0.08670
H492        H  0.58984668  0.99430396  0.87064040     0.05440
loop_ 
_geom_bond_atom_site_label_1 
_geom_bond_atom_site_label_2 
_geom_bond_distance 
_geom_bond_site_symmetry_2 
_ccdc_geom_bond_type 
C1          C200   1.494   1_565  S
C1          C232   1.493       .  S
C1          C248   1.360       .  D
C2          C187   1.495   1_565  S
C2          C216   1.497       .  S
C2          C247   1.360   1_554  D
C3            C4   1.406       .  A
C3            C8   1.407       .  A
C3          C168   1.480       .  S
C4            C5   1.401       .  A
C4            H9   1.083       .  S
C5            C6   1.399       .  A
C5          C203   1.476       .  S
C6            C7   1.399       .  A
C6           H10   1.085       .  S
C7            C8   1.401       .  A
C7          C184   1.476       .  S
C8           H11   1.084       .  S
C12          C13   1.406       .  A
C12          C17   1.406       .  A
C12         C152   1.480       .  S
C13          C14   1.401       .  A
C13          H18   1.084       .  S
C14          C15   1.400       .  A
C14         C235   1.476       .  S
C15          C16   1.398       .  A
C15          H19   1.085       .  S
C16          C17   1.401       .  A
C16         C219   1.477       .  S
C17          H20   1.083       .  S
C21         C107   1.493       .  S
C21         C136   1.494   1_455  S
C21         C268   1.364       .  D
C22          C88   1.493       .  S
C22         C120   1.493   1_455  S
C22         C267   1.364   1_554  D
C23          C24   1.407       .  A
C23          C28   1.407       .  A
C23          C75   1.483       .  S
C24          C25   1.401       .  A
C24          H29   1.083       .  S
C25          C26   1.400       .  A
C25          C91   1.478       .  S
C26          C27   1.399       .  A
C26          H30   1.085       .  S
C27          C28   1.400       .  A
C27         C104   1.474       .  S
C28          H31   1.084       .  S
C32          C33   1.409       .  A
C32          C37   1.410       .  A
C32          C56   1.490       .  S
C33          C34   1.400       .  A
C33          H38   1.083       .  S
C34          C35   1.398       .  A
C34         C139   1.474       .  S
C35          C36   1.399       .  A
C35          H39   1.085       .  S
C36          C37   1.400       .  A
C36         C123   1.476       .  S
C37          H40   1.083       .  S
O41         Cu49   2.012       .  S
O41          C51   1.277       .  A
O42         Cu49   2.002       .  S
O42          C52   1.276       .  A
O43         Cu49   2.010       .  S
O43          C53   1.277       .  A
O44         Cu49   2.012       .  S
O44          C54   1.279       .  A
O45         Cu50   2.009       .  S
O45          C54   1.277       .  A
O46         Cu50   2.007       .  S
O46          C53   1.277       .  A
O47         Cu50   2.015       .  S
O47          C52   1.278       .  A
O48         Cu50   2.012       .  S
O48          C51   1.278       .  A
Cu49        Cu50   2.373       .  S
C51         C171   1.475       .  S
C52         C155   1.472       .  S
C53          C72   1.474       .  S
C54          C59   1.484       .  S
C55          C56   1.406       .  A
C55          C60   1.402       .  A
C55          H62   1.084       .  S
C56          C57   1.418       .  A
C57          C58   1.403       .  A
C57          C64   1.508       .  S
C58          C59   1.404       .  A
C58          H63   1.085       .  S
C59          C60   1.415       .  A
C60          C61   1.506       .  S
C61          H65   1.111       .  S
C61          H66   1.109       .  S
C61          H67   1.104       .  S
C64          H68   1.107       .  S
C64          H69   1.110       .  S
C64          H70   1.111       .  S
C71          C72   1.402       .  A
C71          C76   1.404       .  A
C71          H78   1.084       .  S
C72          C73   1.412       .  A
C73          C74   1.404       .  A
C73          C80   1.507       .  S
C74          C75   1.405       .  A
C74          H79   1.084       .  S
C75          C76   1.416       .  A
C76          C77   1.509       .  S
C77          H81   1.111       .  S
C77          H82   1.107       .  S
C77          H83   1.110       .  S
C80          H84   1.111       .  S
C80          H85   1.109       .  S
C80          H86   1.111       .  S
C87          C88   1.405       .  A
C87          C92   1.402       .  A
C87          H94   1.082       .  S
C88          C89   1.419       .  A
C89          C90   1.402       .  A
C89          C96   1.502       .  S
C90          C91   1.399       .  A
C90          H95   1.085       .  S
C91          C92   1.410       .  A
C92          C93   1.507       .  S
C93          H97   1.111       .  S
C93          H98   1.109       .  S
C93          H99   1.110       .  S
C96         H100   1.097       .  S
C96         H101   1.110       .  S
C96         H102   1.111       .  S
C103        C104   1.399       .  A
C103        C108   1.404       .  A
C103        H110   1.085       .  S
C104        C105   1.408       .  A
C105        C106   1.400       .  A
C105        C112   1.507       .  S
C106        C107   1.405       .  A
C106        H111   1.081       .  S
C107        C108   1.419       .  A
C108        C109   1.503       .  S
C109        H113   1.110       .  S
C109        H114   1.099       .  S
C109        H115   1.110       .  S
C112        H116   1.110       .  S
C112        H117   1.110       .  S
C112        H118   1.111       .  S
C119        C120   1.406       .  A
C119        C124   1.402       .  A
C119        H126   1.082       .  S
C120        C121   1.419       .  A
C121        C122   1.402       .  A
C121        C128   1.503       .  S
C122        C123   1.399       .  A
C122        H127   1.085       .  S
C123        C124   1.408       .  A
C124        C125   1.506       .  S
C125        H129   1.111       .  S
C125        H130   1.109       .  S
C125        H131   1.110       .  S
C128        H132   1.097       .  S
C128        H133   1.110       .  S
C128        H134   1.111       .  S
C135        C136   1.406       .  A
C135        C140   1.402       .  A
C135        H142   1.081       .  S
C136        C137   1.419       .  A
C137        C138   1.403       .  A
C137        C144   1.503       .  S
C138        C139   1.399       .  A
C138        H143   1.085       .  S
C139        C140   1.407       .  A
C140        C141   1.506       .  S
C141        H145   1.111       .  S
C141        H146   1.110       .  S
C141        H147   1.110       .  S
C144        H148   1.111       .  S
C144        H149   1.098       .  S
C144        H150   1.110       .  S
C151        C152   1.403       .  A
C151        C156   1.403       .  A
C151        H158   1.084       .  S
C152        C153   1.414       .  A
C153        C154   1.405       .  A
C153        C160   1.507       .  S
C154        C155   1.402       .  A
C154        H159   1.084       .  S
C155        C156   1.412       .  A
C156        C157   1.508       .  S
C157        H161   1.111       .  S
C157        H162   1.111       .  S
C157        H163   1.110       .  S
C160        H164   1.108       .  S
C160        H165   1.110       .  S
C160        H166   1.111       .  S
C167        C168   1.402       .  A
C167        C172   1.402       .  A
C167        H174   1.084       .  S
C168        C169   1.415       .  A
C169        C170   1.405       .  A
C169        C176   1.508       .  S
C170        C171   1.402       .  A
C170        H175   1.084       .  S
C171        C172   1.411       .  A
C172        C173   1.503       .  S
C173        H177   1.111       .  S
C173        H178   1.110       .  S
C173        H179   1.110       .  S
C176        H180   1.108       .  S
C176        H181   1.110       .  S
C176        H182   1.111       .  S
C183        C184   1.401       .  A
C183        C188   1.406       .  A
C183        H190   1.084       .  S
C184        C185   1.409       .  A
C185        C186   1.399       .  A
C185        C192   1.508       .  S
C186        C187   1.404       .  A
C186        H191   1.079       .  S
C187        C188   1.419       .  A
C188        C189   1.506       .  S
C189        H193   1.111       .  S
C189        H194   1.104       .  S
C189        H195   1.105   1_554  S
C192        H196   1.109       .  S
C192        H197   1.110       .  S
C192        H198   1.111       .  S
C199        C200   1.406       .  A
C199        C204   1.408       .  A
C199        H206   1.083       .  S
C200        C201   1.417       .  A
C201        C202   1.395       .  A
C201        C208   1.506       .  S
C202        C203   1.398       .  A
C202        H207   1.085       .  S
C203        C204   1.412       .  A
C204        C205   1.505       .  S
C205        H209   1.111       .  S
C205        H210   1.109       .  S
C205        H211   1.111       .  S
C208        H212   1.111       .  S
C208        H213   1.105       .  S
C208        H214   1.110       .  S
C215        C216   1.405       .  A
C215        C220   1.399       .  A
C215        H222   1.079       .  S
C216        C217   1.419       .  A
C217        C218   1.407       .  A
C217        C224   1.506       .  S
C218        C219   1.401       .  A
C218        H223   1.084       .  S
C219        C220   1.408       .  A
C220        C221   1.508       .  S
C221        H225   1.111       .  S
C221        H226   1.109       .  S
C221        H227   1.110       .  S
C224        H228   1.104       .  S
C224        H229   1.105   1_554  S
C224        H230   1.111       .  S
C231        C232   1.406       .  A
C231        C236   1.407       .  A
C231        H238   1.083       .  S
C232        C233   1.417       .  A
C233        C234   1.395       .  A
C233        C240   1.506       .  S
C234        C235   1.398       .  A
C234        H239   1.085       .  S
C235        C236   1.412       .  A
C236        C237   1.506       .  S
C237        H241   1.111       .  S
C237        H242   1.109       .  S
C237        H243   1.111       .  S
C240        H244   1.111       .  S
C240        H245   1.105       .  S
C240        H246   1.110       .  S
C247        C446   1.494   1_565  S
C247        C478   1.493       .  S
C248        C433   1.495   1_565  S
C248        C462   1.497       .  S
C249        C250   1.406       .  A
C249        C254   1.407       .  A
C249        C414   1.480       .  S
C250        C251   1.401       .  A
C250        H255   1.083       .  S
C251        C252   1.399       .  A
C251        C449   1.476       .  S
C252        C253   1.399       .  A
C252        H256   1.085       .  S
C253        C254   1.401       .  A
C253        C430   1.476       .  S
C254        H257   1.084       .  S
C258        C259   1.406       .  A
C258        C263   1.406       .  A
C258        C398   1.480       .  S
C259        C260   1.401       .  A
C259        H264   1.084       .  S
C260        C261   1.400       .  A
C260        C481   1.476       .  S
C261        C262   1.398       .  A
C261        H265   1.085       .  S
C262        C263   1.401       .  A
C262        C465   1.477       .  S
C263        H266   1.083       .  S
C267        C353   1.493       .  S
C267        C382   1.494   1_455  S
C268        C334   1.493       .  S
C268        C366   1.493   1_455  S
C269        C270   1.407       .  A
C269        C274   1.407       .  A
C269        C321   1.483       .  S
C270        C271   1.401       .  A
C270        H275   1.083       .  S
C271        C272   1.400       .  A
C271        C337   1.478       .  S
C272        C273   1.399       .  A
C272        H276   1.085       .  S
C273        C274   1.400       .  A
C273        C350   1.474       .  S
C274        H277   1.084       .  S
C278        C279   1.409       .  A
C278        C283   1.410       .  A
C278        C302   1.490       .  S
C279        C280   1.400       .  A
C279        H284   1.083       .  S
C280        C281   1.398       .  A
C280        C385   1.474       .  S
C281        C282   1.399       .  A
C281        H285   1.085       .  S
C282        C283   1.400       .  A
C282        C369   1.476       .  S
C283        H286   1.083       .  S
O287       Cu295   2.012       .  S
O287        C297   1.277       .  A
O288       Cu295   2.002       .  S
O288        C298   1.276       .  A
O289       Cu295   2.010       .  S
O289        C299   1.277       .  A
O290       Cu295   2.012       .  S
O290        C300   1.279       .  A
O291       Cu296   2.009       .  S
O291        C300   1.277       .  A
O292       Cu296   2.007       .  S
O292        C299   1.277       .  A
O293       Cu296   2.015       .  S
O293        C298   1.278       .  A
O294       Cu296   2.012       .  S
O294        C297   1.278       .  A
Cu295      Cu296   2.373       .  S
C297        C417   1.475       .  S
C298        C401   1.472       .  S
C299        C318   1.474       .  S
C300        C305   1.484       .  S
C301        C302   1.406       .  A
C301        C306   1.402       .  A
C301        H308   1.084       .  S
C302        C303   1.418       .  A
C303        C304   1.403       .  A
C303        C310   1.508       .  S
C304        C305   1.404       .  A
C304        H309   1.085       .  S
C305        C306   1.415       .  A
C306        C307   1.506       .  S
C307        H311   1.111       .  S
C307        H312   1.109       .  S
C307        H313   1.104       .  S
C310        H314   1.107       .  S
C310        H315   1.110       .  S
C310        H316   1.111       .  S
C317        C318   1.402       .  A
C317        C322   1.404       .  A
C317        H324   1.084       .  S
C318        C319   1.412       .  A
C319        C320   1.404       .  A
C319        C326   1.507       .  S
C320        C321   1.405       .  A
C320        H325   1.084       .  S
C321        C322   1.416       .  A
C322        C323   1.509       .  S
C323        H327   1.111       .  S
C323        H328   1.107       .  S
C323        H329   1.110       .  S
C326        H330   1.111       .  S
C326        H331   1.109       .  S
C326        H332   1.111       .  S
C333        C334   1.405       .  A
C333        C338   1.402       .  A
C333        H340   1.082       .  S
C334        C335   1.419       .  A
C335        C336   1.402       .  A
C335        C342   1.502       .  S
C336        C337   1.399       .  A
C336        H341   1.085       .  S
C337        C338   1.410       .  A
C338        C339   1.507       .  S
C339        H343   1.111       .  S
C339        H344   1.109       .  S
C339        H345   1.110       .  S
C342        H346   1.097       .  S
C342        H347   1.110       .  S
C342        H348   1.111       .  S
C349        C350   1.399       .  A
C349        C354   1.404       .  A
C349        H356   1.085       .  S
C350        C351   1.408       .  A
C351        C352   1.400       .  A
C351        C358   1.507       .  S
C352        C353   1.405       .  A
C352        H357   1.081       .  S
C353        C354   1.419       .  A
C354        C355   1.503       .  S
C355        H359   1.110       .  S
C355        H360   1.099       .  S
C355        H361   1.110       .  S
C358        H362   1.110       .  S
C358        H363   1.110       .  S
C358        H364   1.111       .  S
C365        C366   1.406       .  A
C365        C370   1.402       .  A
C365        H372   1.082       .  S
C366        C367   1.419       .  A
C367        C368   1.402       .  A
C367        C374   1.503       .  S
C368        C369   1.399       .  A
C368        H373   1.085       .  S
C369        C370   1.408       .  A
C370        C371   1.506       .  S
C371        H375   1.111       .  S
C371        H376   1.109       .  S
C371        H377   1.110       .  S
C374        H378   1.097       .  S
C374        H379   1.110       .  S
C374        H380   1.111       .  S
C381        C382   1.406       .  A
C381        C386   1.402       .  A
C381        H388   1.081       .  S
C382        C383   1.419       .  A
C383        C384   1.403       .  A
C383        C390   1.503       .  S
C384        C385   1.399       .  A
C384        H389   1.085       .  S
C385        C386   1.407       .  A
C386        C387   1.506       .  S
C387        H391   1.111       .  S
C387        H392   1.110       .  S
C387        H393   1.110       .  S
C390        H394   1.111       .  S
C390        H395   1.098       .  S
C390        H396   1.110       .  S
C397        C398   1.403       .  A
C397        C402   1.403       .  A
C397        H404   1.084       .  S
C398        C399   1.414       .  A
C399        C400   1.405       .  A
C399        C406   1.507       .  S
C400        C401   1.402       .  A
C400        H405   1.084       .  S
C401        C402   1.412       .  A
C402        C403   1.508       .  S
C403        H407   1.111       .  S
C403        H408   1.111       .  S
C403        H409   1.110       .  S
C406        H410   1.108       .  S
C406        H411   1.110       .  S
C406        H412   1.111       .  S
C413        C414   1.402       .  A
C413        C418   1.402       .  A
C413        H420   1.084       .  S
C414        C415   1.415       .  A
C415        C416   1.405       .  A
C415        C422   1.508       .  S
C416        C417   1.402       .  A
C416        H421   1.084       .  S
C417        C418   1.411       .  A
C418        C419   1.503       .  S
C419        H423   1.111       .  S
C419        H424   1.110       .  S
C419        H425   1.110       .  S
C422        H426   1.108       .  S
C422        H427   1.110       .  S
C422        H428   1.111       .  S
C429        C430   1.401       .  A
C429        C434   1.406       .  A
C429        H436   1.084       .  S
C430        C431   1.409       .  A
C431        C432   1.399       .  A
C431        C438   1.508       .  S
C432        C433   1.404       .  A
C432        H437   1.079       .  S
C433        C434   1.419       .  A
C434        C435   1.506       .  S
C435        H439   1.111       .  S
C435        H440   1.104       .  S
C435        H441   1.105       .  S
C438        H442   1.109       .  S
C438        H443   1.110       .  S
C438        H444   1.111       .  S
C445        C446   1.406       .  A
C445        C450   1.408       .  A
C445        H452   1.083       .  S
C446        C447   1.417       .  A
C447        C448   1.395       .  A
C447        C454   1.506       .  S
C448        C449   1.398       .  A
C448        H453   1.085       .  S
C449        C450   1.412       .  A
C450        C451   1.505       .  S
C451        H455   1.111       .  S
C451        H456   1.109       .  S
C451        H457   1.111       .  S
C454        H458   1.111       .  S
C454        H459   1.105       .  S
C454        H460   1.110       .  S
C461        C462   1.405       .  A
C461        C466   1.399       .  A
C461        H468   1.079       .  S
C462        C463   1.419       .  A
C463        C464   1.407       .  A
C463        C470   1.506       .  S
C464        C465   1.401       .  A
C464        H469   1.084       .  S
C465        C466   1.408       .  A
C466        C467   1.508       .  S
C467        H471   1.111       .  S
C467        H472   1.109       .  S
C467        H473   1.110       .  S
C470        H474   1.104       .  S
C470        H475   1.105       .  S
C470        H476   1.111       .  S
C477        C478   1.406       .  A
C477        C482   1.407       .  A
C477        H484   1.083       .  S
C478        C479   1.417       .  A
C479        C480   1.395       .  A
C479        C486   1.506       .  S
C480        C481   1.398       .  A
C480        H485   1.085       .  S
C481        C482   1.412       .  A
C482        C483   1.506       .  S
C483        H487   1.111       .  S
C483        H488   1.109       .  S
C483        H489   1.111       .  S
C486        H490   1.111       .  S
C486        H491   1.105       .  S
C486        H492   1.110       .  S
