geometry optimzed in LAMMPS
_audit_creation_date              2020-11-30 
_audit_creation_method            'lammps2cif' 
_symmetry_space_group_name_H-M    'P1' 
_symmetry_Int_Tables_number       1 
_symmetry_cell_setting            triclinic 
loop_ 
_symmetry_equiv_pos_as_xyz 
  x,y,z 
_cell_length_a                    52.63766547 
_cell_length_b                    52.762906306039454 
_cell_length_c                    39.147246033448106 
_cell_angle_alpha                 90.06005228669312 
_cell_angle_beta                  90.0327498949171 
_cell_angle_gamma                 120.29161386094064 
loop_ 
_atom_site_label 
_atom_site_type_symbol 
_atom_site_fract_x 
_atom_site_fract_y 
_atom_site_fract_z 
_atom_site_charge 
C1          C  0.05375628  0.38662558  0.16560827     0.03400
C2          C  0.05193919  0.36200122  0.18117951    -0.12700
C3          C  0.02520693  0.33519332  0.18235228     0.00900
C4          C  0.50011394  0.33315294  0.16621155    -0.11300
C5          C  0.50202818  0.35798431  0.14978027     0.03400
C6          C  0.02889197  0.38458938  0.15036142    -0.10700
H7          H  0.07131947  0.36429944  0.19377987     0.09000
H8          H  0.47943237  0.31258702  0.16645153     0.06500
H9          H  0.03100757  0.40382304  0.13774939     0.06400
C10         C  0.16232556  0.49722315  0.16787111     0.03400
C11         C  0.18709238  0.99896064  0.18306060    -0.12700
C12         C  0.21418027  0.02535387  0.18341738     0.00900
C13         C  0.21636192  0.05029869  0.16697495    -0.11300
C14         C  0.19134628  0.04851896  0.15096003     0.03400
C15         C  0.16443161  0.02193454  0.15230904    -0.10700
H16         H  0.18477880  0.47963323  0.19564146     0.09000
H17         H  0.23719640  0.07070216  0.16652146     0.06500
H18         H  0.14512591  0.01981130  0.13970812     0.06400
C19         C  0.49598434  0.16323539  0.33415894     0.03400
C20         C  0.99800993  0.18782968  0.31825827    -0.12700
C21         C  0.02482570  0.21453500  0.31689502     0.00900
C22         C  0.04989521  0.21651044  0.33305169    -0.11300
C23         C  0.04785707  0.19171242  0.34973964     0.03400
C24         C  0.02083731  0.16522656  0.34947899    -0.10700
H25         H  0.47871313  0.18557866  0.30551043     0.09000
H26         H  0.07065374  0.23699616  0.33261813     0.06500
H27         H  0.01862365  0.14606064  0.36235543     0.06400
C28         C  0.38709133  0.05259943  0.33215072     0.03400
C29         C  0.38498280  0.02806459  0.34828067    -0.12700
C30         C  0.35823468  0.50127614  0.34929975     0.00900
C31         C  0.33330427  0.49918800  0.33261367    -0.11300
C32         C  0.33543910  0.02396492  0.31572718     0.03400
C33         C  0.36240987  0.05050271  0.31626885    -0.10700
H34         H  0.40417259  0.03042291  0.36141699     0.09000
H35         H  0.31257740  0.47866419  0.33285505     0.06500
H36         H  0.36471920  0.06965677  0.30326347     0.06400
O37         O  0.31506351  0.04960627  0.21263950    -0.72700
O38         O  0.25977810  0.04800576  0.28477447    -0.73600
O39         O  0.31395772  0.04714915  0.28431646    -0.62300
O40         O  0.26051197  0.05054117  0.21316667    -0.70700
O41         O  0.23569377  0.00191568  0.21425235    -0.70200
O42         O  0.28930729  0.49853200  0.28536286    -0.61500
O43         O  0.23464455  0.49938330  0.28591778    -0.74000
O44         O  0.28987505  0.00098043  0.21362311    -0.72800
Cu45       Cu  0.28820079  0.05048948  0.24886596     1.04600
Cu46       Cu  0.26150920  0.49852645  0.24962518     1.04300
C47         C  0.31181654  0.02501819  0.20295885     0.93500
C48         C  0.23787073  0.02397871  0.29552853     0.92700
C49         C  0.31128700  0.02294123  0.29486577     0.84800
C50         C  0.23841957  0.02617624  0.20380998     0.91100
O51         O  0.04815595  0.25907827  0.21436861    -0.72700
O52         O  0.05060895  0.31525043  0.28584588    -0.73600
O53         O  0.05054138  0.26021071  0.28608112    -0.62300
O54         O  0.04825356  0.31367844  0.21412123    -0.70700
O55         O  0.49951940  0.28943780  0.21296293    -0.70200
O56         O  0.00181163  0.23599172  0.28492940    -0.61500
O57         O  0.00186926  0.29060744  0.28467236    -0.74000
O58         O  0.99941660  0.23438630  0.21320028    -0.69200
Cu59       Cu  0.05105790  0.28788962  0.24996119     1.04600
Cu60       Cu  0.49897909  0.26176106  0.24907877     1.04300
C61         C  0.02394926  0.23724899  0.20374934     0.93500
C62         C  0.02608992  0.31242566  0.29529386     0.92700
C63         C  0.02598219  0.23850016  0.29566168     0.84800
C64         C  0.02408010  0.31117372  0.20342246     0.91100
C65         C  0.32968283  0.02561966  0.99831330     0.03400
C66         C  0.35437547  0.04813217  0.01443448    -0.12700
C67         C  0.38103012  0.04818398  0.01543994     0.00900
C68         C  0.38279950  0.02513818  0.99925155    -0.11300
C69         C  0.35781498  0.00224805  0.48270266     0.03400
C70         C  0.33141661  0.00274992  0.48279868    -0.10700
H71         H  0.35226312  0.06505416  0.02756309     0.09000
H72         H  0.40327453  0.02495292  0.99964438     0.06500
H73         H  0.31215043  0.48573297  0.46975631     0.06400
C74         C  0.22012348  0.02487292  0.50108249     0.03400
C75         C  0.19543923  0.00225777  0.48509668    -0.12700
C76         C  0.16862674  0.00188679  0.48445732     0.00900
C77         C  0.16669798  0.02477292  0.50087418    -0.11300
C78         C  0.19169732  0.04778876  0.01730312     0.03400
C79         C  0.21825982  0.04759147  0.01678383    -0.10700
H80         H  0.19766711  0.48546555  0.47181677     0.09000
H81         H  0.14609955  0.02471876  0.50078065     0.06500
H82         H  0.23754779  0.06468268  0.02971231     0.06400
C83         C  0.02571015  0.22087532  0.00103286     0.03400
C84         C  0.04816781  0.21885464  0.48479598    -0.12700
C85         C  0.04794817  0.19216187  0.48345961     0.00900
C86         C  0.02484991  0.16722507  0.99977099    -0.11300
C87         C  0.00216274  0.16925123  0.01667428     0.03400
C88         C  0.00277436  0.19615023  0.01654630    -0.10700
H89         H  0.06527775  0.23809765  0.47192371     0.09000
H90         H  0.02452577  0.14654232  0.99930448     0.06500
H91         H  0.48585652  0.19835728  0.02963492     0.06400
C92         C  0.02502826  0.32944699  0.50022946     0.03400
C93         C  0.00222280  0.33123244  0.01590694    -0.12700
C94         C  0.00185417  0.35763925  0.01634439     0.00900
C95         C  0.02470308  0.38251382  0.49965799    -0.11300
C96         C  0.04777060  0.38072304  0.48338299     0.03400
C97         C  0.04776507  0.35413460  0.48447736    -0.10700
H98         H  0.48526166  0.31203261  0.02899664     0.09000
H99         H  0.02456851  0.40296774  0.49940755     0.06500
H100        H  0.06494260  0.35207598  0.47182831     0.06400
C101        C  0.05358725  0.19160143  0.16591813     0.03400
C102        C  0.02878188  0.16879829  0.15028864    -0.12700
C103        C  0.50192474  0.16837368  0.14984353     0.00900
C104        C  0.50000603  0.19123085  0.16641317    -0.11300
C105        C  0.02502171  0.21426591  0.18283042     0.03400
C106        C  0.05164863  0.21417844  0.18195212    -0.10700
H107        H  0.03091680  0.15183664  0.13727009     0.09000
H108        H  0.47936710  0.19109494  0.16652905     0.06500
H109        H  0.07090665  0.23118203  0.19501620     0.06400
C110        C  0.16252034  0.19083704  0.16728113     0.03400
C111        C  0.16468969  0.16851547  0.15102544    -0.12700
C112        C  0.19138983  0.16862091  0.15016259     0.00900
C113        C  0.21628943  0.19158119  0.16680704    -0.11300
C114        C  0.21419342  0.21424770  0.18359295     0.03400
C115        C  0.18721098  0.21361867  0.18320539    -0.10700
H116        H  0.14555256  0.15159539  0.13770311     0.09000
H117        H  0.23699192  0.19184803  0.16662126     0.06500
H118        H  0.18493639  0.23044819  0.19634617     0.06400
O119        O  0.16587216  0.12268185  0.04666119    -0.72700
O120        O  0.16849896  0.06987420  0.11878868    -0.73600
O121        O  0.16843691  0.12410260  0.11827415    -0.62300
O122        O  0.16607150  0.06797535  0.04722092    -0.70700
O123        O  0.21482653  0.09271993  0.04843616    -0.70200
O124        O  0.21718292  0.14890217  0.11954051    -0.61500
O125        O  0.21723713  0.09408676  0.12006257    -0.74000
O126        O  0.21461372  0.14698877  0.04784155    -0.72800
Cu127      Cu  0.16555604  0.09532307  0.08286511     1.04600
Cu128      Cu  0.21765968  0.12154021  0.08380955     1.04300
C129        C  0.19040780  0.14436166  0.03705691     0.93500
C130        C  0.19264361  0.07244233  0.12965254     0.92700
C131        C  0.19260539  0.14589329  0.12901047     0.84800
C132        C  0.19062660  0.07085307  0.03789658     0.91100
C133        C  0.35840733  0.38673851  0.16638567     0.03400
C134        C  0.33598181  0.36220996  0.18275527    -0.12700
C135        C  0.33577658  0.33552198  0.18358334     0.00900
C136        C  0.35857833  0.33356202  0.16684731    -0.11300
C137        C  0.38136944  0.35838014  0.14998693     0.03400
C138        C  0.38111270  0.38486383  0.15054707    -0.10700
H139        H  0.31910426  0.36441709  0.19592449     0.09000
H140        H  0.35857249  0.31303689  0.16691325     0.06500
H141        H  0.39803017  0.40402771  0.13735275     0.06400
C142        C  0.35758647  0.49539919  0.16539314     0.03400
C143        C  0.33472693  0.49720290  0.18098319    -0.12700
C144        C  0.33459929  0.02375315  0.18181082     0.00900
C145        C  0.35762026  0.04867978  0.16538479    -0.11300
C146        C  0.38052827  0.04680743  0.14882256     0.03400
C147        C  0.38024198  0.02007348  0.14943740    -0.10700
H148        H  0.31762770  0.47795994  0.19387584     0.09000
H149        H  0.35772983  0.06925904  0.16553631     0.06500
H150        H  0.39723669  0.01797018  0.13641334     0.06400
O151        O  0.48188500  0.38326365  0.04671114    -0.72700
O152        O  0.42601031  0.38125838  0.11813449    -0.73600
O153        O  0.48037796  0.38093709  0.11832775    -0.62300
O154        O  0.42711551  0.38357319  0.04652143    -0.70700
O155        O  0.40264205  0.33494634  0.04771020    -0.70200
O156        O  0.45600515  0.33231125  0.11948074    -0.61500
O157        O  0.40116710  0.33263234  0.11940075    -0.74000
O158        O  0.45702410  0.33462964  0.04784255    -0.72800
Cu159      Cu  0.45469762  0.38392229  0.08256518     1.04600
Cu160      Cu  0.42834401  0.33194691  0.08345940     1.04300
C161        C  0.47888752  0.35874301  0.03721854     0.93500
C162        C  0.40418973  0.35717490  0.12888001     0.92700
C163        C  0.47783319  0.35681298  0.12897961     0.84800
C164        C  0.40526027  0.35909739  0.03703272     0.91100
O165        O  0.45729982  0.14727562  0.04808459    -0.72700
O166        O  0.40091037  0.09279080  0.11894249    -0.73600
O167        O  0.45597871  0.14802852  0.11963347    -0.62300
O168        O  0.40273120  0.09260002  0.04741067    -0.70700
O169        O  0.42676217  0.06815362  0.04599210    -0.70200
O170        O  0.48015191  0.12372776  0.11813881    -0.61500
O171        O  0.42548255  0.06889284  0.11752409    -0.74000
O172        O  0.48178818  0.12329188  0.04654370    -0.72800
Cu173      Cu  0.42838535  0.12099221  0.08339400     1.04600
Cu174      Cu  0.45439360  0.09518632  0.08218965     1.04300
C175        C  0.47904649  0.14500305  0.03734559     0.93500
C176        C  0.40365993  0.07108612  0.12815697     0.92700
C177        C  0.47772436  0.14532582  0.12897681     0.84800
C178        C  0.40512327  0.07100083  0.03655118     0.91100
C179        C  0.22040403  0.21947922  0.49881245     0.03400
C180        C  0.21837739  0.19480635  0.01435319    -0.12700
C181        C  0.19151026  0.16824530  0.01586701     0.00900
C182        C  0.16638271  0.16644568  0.50012280    -0.11300
C183        C  0.16845527  0.19136377  0.48373233     0.03400
C184        C  0.19552381  0.21776978  0.48396689    -0.10700
H185        H  0.23773834  0.19692225  0.02678857     0.09000
H186        H  0.14556892  0.14601745  0.50064385     0.06500
H187        H  0.19776683  0.23705294  0.47136094     0.06400
C188        C  0.32947381  0.32950167  0.50016271     0.03400
C189        C  0.35433908  0.33138602  0.01522175    -0.12700
C190        C  0.38113424  0.35803766  0.01622667     0.00900
C191        C  0.38299359  0.38306023  0.50037537    -0.11300
C192        C  0.35792007  0.38113289  0.48434995     0.03400
C193        C  0.33127939  0.35427119  0.48505650    -0.10700
H194        H  0.35225214  0.31204389  0.02749838     0.09000
H195        H  0.40362109  0.40368828  0.50048457     0.06500
H196        H  0.31193679  0.35207286  0.47247138     0.06400
C197        C  0.49664968  0.35820301  0.33335075     0.03400
C198        C  0.02141447  0.38076705  0.34932846    -0.12700
C199        C  0.04823167  0.38106745  0.34983141     0.00900
C200        C  0.05006847  0.35823067  0.33305385    -0.11300
C201        C  0.02508069  0.33545111  0.31622977     0.03400
C202        C  0.49854861  0.33576495  0.31691390    -0.10700
H203        H  0.01942614  0.39794784  0.36196004     0.09000
H204        H  0.07062709  0.35820574  0.33305202     0.06500
H205        H  0.47913699  0.31865737  0.30416750     0.06400
C206        C  0.38750908  0.35858085  0.33392121     0.03400
C207        C  0.38530596  0.38075884  0.35056751    -0.12700
C208        C  0.35863958  0.38080099  0.35120510     0.00900
C209        C  0.33380506  0.35798136  0.33428948    -0.11300
C210        C  0.33591248  0.33539741  0.31731252     0.03400
C211        C  0.36287308  0.33596910  0.31773173    -0.10700
H212        H  0.40460424  0.39792003  0.36342497     0.09000
H213        H  0.31314772  0.35781232  0.33431557     0.06500
H214        H  0.36504807  0.31897533  0.30489518     0.06400
O215        O  0.38339411  0.48183332  0.45327842    -0.72700
O216        O  0.38147843  0.42561899  0.38263559    -0.73600
O217        O  0.38118046  0.47998976  0.38169198    -0.62300
O218        O  0.38356151  0.42705409  0.45418800    -0.70700
O219        O  0.33482356  0.40267991  0.45280836    -0.70200
O220        O  0.33245450  0.45565166  0.38025754    -0.61500
O221        O  0.33273906  0.40078995  0.38115767    -0.74000
O222        O  0.33463874  0.45710957  0.45191536    -0.72800
Cu223      Cu  0.38406410  0.45447133  0.41783306     1.04600
Cu224      Cu  0.33197460  0.42820374  0.41668574     1.04300
C225        C  0.35883044  0.47902032  0.46241632     0.93500
C226        C  0.35736273  0.40371594  0.37198203     0.92700
C227        C  0.35702363  0.47737642  0.37072837     0.84800
C228        C  0.35900765  0.40525600  0.46359059     0.91100
C229        C  0.19263474  0.05399117  0.33372106     0.03400
C230        C  0.17031691  0.02952805  0.35040775    -0.12700
C231        C  0.16994392  0.50273389  0.35108503     0.00900
C232        C  0.19258988  0.50065571  0.33410565    -0.11300
C233        C  0.21519467  0.02532295  0.31682346     0.03400
C234        C  0.21488674  0.05178119  0.31713763    -0.10700
H235        H  0.15356449  0.03180333  0.36379425     0.09000
H236        H  0.19253905  0.48010793  0.33418598     0.06500
H237        H  0.23143488  0.07065003  0.30319865     0.06400
C238        C  0.19068969  0.16226511  0.33208309     0.03400
C239        C  0.16849504  0.16441314  0.34891759    -0.12700
C240        C  0.16852477  0.19104272  0.35005118     0.00900
C241        C  0.19140085  0.21592623  0.33339493    -0.11300
C242        C  0.21395686  0.21388807  0.31619252     0.03400
C243        C  0.21323839  0.18693588  0.31598306    -0.10700
H244        H  0.15173082  0.14535503  0.36239000     0.09000
H245        H  0.19169757  0.23659347  0.33390069     0.06500
H246        H  0.22992097  0.18471554  0.30234920     0.06400
O247        O  0.09263464  0.21500842  0.45169500    -0.72700
O248        O  0.14879963  0.21684293  0.38070097    -0.73600
O249        O  0.09395245  0.21729614  0.38003658    -0.62300
O250        O  0.14695995  0.21455299  0.45237745    -0.70700
O251        O  0.12238330  0.16592549  0.45355791    -0.70200
O252        O  0.06947252  0.16867492  0.38119653    -0.61500
O253        O  0.12386495  0.16822020  0.38193265    -0.74000
O254        O  0.06764996  0.16638110  0.45283938    -0.72800
Cu255      Cu  0.12144876  0.21760362  0.41634610     1.04600
Cu256      Cu  0.09498724  0.16563523  0.41723620     1.04300
C257        C  0.07072413  0.19093757  0.46232336     0.93500
C258        C  0.14576776  0.19228371  0.37127147     0.92700
C259        C  0.07207836  0.19282222  0.37051677     0.84800
C260        C  0.14427426  0.19037508  0.46306909     0.91100
O261        O  0.06791901  0.42640210  0.45287857    -0.72700
O262        O  0.12492505  0.48076556  0.38230456    -0.73600
O263        O  0.07014753  0.42585889  0.38129468    -0.62300
O264        O  0.12289711  0.48159489  0.45380772    -0.70700
O265        O  0.14710088  0.45731571  0.45275819    -0.70200
O266        O  0.09412923  0.40136837  0.38045060    -0.61500
O267        O  0.14939499  0.45676573  0.38120875    -0.74000
O268        O  0.09262644  0.40263129  0.45204485    -0.72800
Cu269      Cu  0.09562669  0.45447565  0.41739657     1.04600
Cu270      Cu  0.12165693  0.42869411  0.41676122     1.04300
C271        C  0.07077187  0.40484657  0.46247632     0.93500
C272        C  0.14677514  0.47852359  0.37186916     0.92700
C273        C  0.07247892  0.40412584  0.37076353     0.84800
C274        C  0.14457029  0.47888860  0.46344505     0.91100
O275        O  0.26020504  0.23472105  0.21378067    -0.72700
O276        O  0.31402581  0.29068815  0.28562661    -0.73600
O277        O  0.25906231  0.23599370  0.28527350    -0.62300
O278        O  0.31552762  0.28978849  0.21401928    -0.70700
O279        O  0.29103989  0.31377262  0.21521670    -0.70200
O280        O  0.23457961  0.25998795  0.28647919    -0.61500
O281        O  0.28998679  0.31511928  0.28685209    -0.74000
O282        O  0.23612547  0.25911885  0.21496163    -0.72800
Cu283      Cu  0.28804331  0.26197418  0.24982916     1.04600
Cu284      Cu  0.26211374  0.28785288  0.25073792     1.04300
C285        C  0.23845136  0.23740160  0.20435901     0.93500
C286        C  0.31170087  0.31237887  0.29632454     0.92700
C287        C  0.23722544  0.23823590  0.29574337     0.84800
C288        C  0.31277931  0.31143684  0.20457381     0.91100
C289        C  0.16625370  0.08158786  0.32472651    -0.21000
C290        C  0.19231199  0.08180960  0.33310972    -0.09100
C291        C  0.21777685  0.10859925  0.34093097     0.29800
C292        C  0.21704928  0.13464154  0.34042571    -0.21000
C293        C  0.19097901  0.13442606  0.33216503    -0.09100
C294        C  0.16553363  0.10765601  0.32419466     0.29800
F295        F  0.14019874  0.10675721  0.31509632    -0.19600
H296        H  0.14655612  0.06124949  0.31817410     0.18200
H297        H  0.23674834  0.15495675  0.34704463     0.18200
F298        F  0.24313060  0.10953660  0.35002176    -0.19600
C299        C  0.45428932  0.35635983  0.30277547    -0.21000
C300        C  0.46869749  0.35827590  0.33364144    -0.09100
C301        C  0.45647046  0.36060826  0.36457794     0.29800
C302        C  0.43013242  0.36092461  0.36448214    -0.21000
C303        C  0.41564961  0.35886853  0.33362146    -0.09100
C304        C  0.42800550  0.35677792  0.30267250     0.29800
F305        F  0.41500827  0.35585149  0.27236453    -0.19600
H306        H  0.46368513  0.35497409  0.27867836     0.18200
H307        H  0.42074829  0.36232076  0.38858064     0.18200
F308        F  0.46963533  0.36185801  0.39487168    -0.19600
C309        C  0.24900781  0.27308475  0.01006305    -0.21000
C310        C  0.24845894  0.24751845  0.49900594    -0.09100
C311        C  0.27471572  0.24895591  0.48863731     0.29800
C312        C  0.30103464  0.27574371  0.48906771    -0.21000
C313        C  0.30152908  0.30134227  0.49995515    -0.09100
C314        C  0.27534297  0.29980413  0.01074224     0.29800
F315        F  0.27537925  0.32393812  0.02285985    -0.19600
H316        H  0.22905186  0.27222615  0.01874951     0.18200
H317        H  0.32101970  0.27659827  0.48052466     0.18200
F318        F  0.27481621  0.22464656  0.47741933    -0.19600
C319        C  0.38326935  0.44066227  0.17598533    -0.21000
C320        C  0.35812229  0.41451113  0.16593424    -0.09100
C321        C  0.33279817  0.41505437  0.15570355     0.29800
C322        C  0.33270438  0.44143057  0.15575054    -0.21000
C323        C  0.35785899  0.46759818  0.16579632    -0.09100
C324        C  0.38318417  0.46703693  0.17602173     0.29800
F325        F  0.40755949  0.49184107  0.18685464    -0.19600
H326        H  0.40284698  0.44054696  0.18430296     0.18200
H327        H  0.31312116  0.44153445  0.14743270     0.18200
F328        F  0.30844884  0.39022995  0.14485301    -0.19600
C329        C  0.08171484  0.16591952  0.17544020    -0.21000
C330        C  0.08151732  0.19146956  0.16594235    -0.09100
C331        C  0.10797879  0.21661528  0.15651454     0.29800
C332        C  0.13426654  0.21625811  0.15715623    -0.21000
C333        C  0.13450528  0.19079012  0.16689155    -0.09100
C334        C  0.10797760  0.16550205  0.17588401     0.29800
F335        F  0.10752961  0.14065161  0.18590674    -0.19600
H336        H  0.06158622  0.14643603  0.18297270     0.18200
H337        H  0.15439143  0.23571896  0.14955347     0.18200
F338        F  0.10831090  0.24124692  0.14581881    -0.19600
C339        C  0.05030038  0.30119177  0.51152115    -0.21000
C340        C  0.02518324  0.30164097  0.00038380    -0.09100
C341        C  0.50039126  0.27551954  0.98936929     0.29800
C342        C  0.00068338  0.24927074  0.98985549    -0.21000
C343        C  0.02574815  0.24878034  0.00105727    -0.09100
C344        C  0.05063260  0.27493404  0.51188905     0.29800
F345        F  0.07495010  0.27496173  0.52352762    -0.19600
H346        H  0.06946649  0.32110081  0.52029652     0.18200
H347        H  0.48153243  0.22938715  0.98098624     0.18200
F348        F  0.47622390  0.27554214  0.97727926    -0.19600
C349        C  0.27573777  0.49999624  0.00818355    -0.21000
C350        C  0.30168307  0.02554466  0.49862562    -0.09100
C351        C  0.30070675  0.05090730  0.49003450     0.29800
C352        C  0.27410356  0.05058475  0.49114308    -0.21000
C353        C  0.24816046  0.02502620  0.50070000    -0.09100
C354        C  0.24914661  0.49967154  0.00928824     0.29800
F355        F  0.22456750  0.47483284  0.01952940    -0.19600
H356        H  0.27617501  0.48038625  0.01536926     0.18200
H357        H  0.27365312  0.07019184  0.48397813     0.18200
F358        F  0.32529620  0.07573868  0.47980146    -0.19600
C359        C  0.46773447  0.10939925  0.32340356    -0.21000
C360        C  0.46800172  0.13498083  0.33390554    -0.09100
C361        C  0.44154223  0.13331456  0.34383623     0.29800
C362        C  0.41528477  0.10642981  0.34308349    -0.21000
C363        C  0.41503797  0.08086074  0.33257483    -0.09100
C364        C  0.44148352  0.08252905  0.32263941     0.29800
F365        F  0.44180590  0.05836433  0.31131894    -0.19600
H366        H  0.48785823  0.11034622  0.31525668     0.18200
H367        H  0.39513964  0.10546507  0.35117018     0.18200
F368        F  0.44119097  0.15749127  0.35505555    -0.19600
C369        C  0.08190698  0.44022350  0.17765900    -0.21000
C370        C  0.08158521  0.41492399  0.16588474    -0.09100
C371        C  0.10779853  0.41691503  0.15438651     0.29800
C372        C  0.13400153  0.44380532  0.15520746    -0.21000
C373        C  0.13437749  0.46905787  0.16722005    -0.09100
C374        C  0.10809730  0.46715358  0.17834187     0.29800
F375        F  0.10789524  0.49111937  0.19064612    -0.19600
H376        H  0.06188589  0.43899571  0.18676222     0.18200
H377        H  0.15400631  0.44503991  0.14602538     0.18200
F378        F  0.10790829  0.39305848  0.14155694    -0.19600
C379        C  0.05375630  0.38662554  0.66560822     0.03400
C380        C  0.05193919  0.36200115  0.68117954    -0.12700
C381        C  0.02520691  0.33519330  0.68235232     0.00900
C382        C  0.50011375  0.33315276  0.66621157    -0.11300
C383        C  0.50202822  0.35798435  0.64978024     0.03400
C384        C  0.02889199  0.38458921  0.65036143    -0.10700
H385        H  0.07131935  0.36429937  0.69377984     0.09000
H386        H  0.47943299  0.31258768  0.66645157     0.06500
H387        H  0.03100767  0.40382346  0.63774897     0.06400
C388        C  0.16232553  0.49722318  0.66787121     0.03400
C389        C  0.18709235  0.99896053  0.68306074    -0.12700
C390        C  0.21418024  0.02535392  0.68341742     0.00900
C391        C  0.21636187  0.05029871  0.66697502    -0.11300
C392        C  0.19134622  0.04851896  0.65096008     0.03400
C393        C  0.16443157  0.02193453  0.65230908    -0.10700
H394        H  0.18477876  0.47963325  0.69564152     0.09000
H395        H  0.23719633  0.07070219  0.66652152     0.06500
H396        H  0.14512587  0.01981127  0.63970813     0.06400
C397        C  0.49598433  0.16323545  0.83415902     0.03400
C398        C  0.99800992  0.18782974  0.81825838    -0.12700
C399        C  0.02482573  0.21453506  0.81689508     0.00900
C400        C  0.04989507  0.21651032  0.83305169    -0.11300
C401        C  0.04785711  0.19171248  0.84973964     0.03400
C402        C  0.02083732  0.16522671  0.84947896    -0.10700
H403        H  0.47871319  0.18557876  0.80551070     0.09000
H404        H  0.07065447  0.23699685  0.83261805     0.06500
H405        H  0.01862363  0.14606032  0.86235571     0.06400
C406        C  0.38709133  0.05259949  0.83215082     0.03400
C407        C  0.38498284  0.02806463  0.84828070    -0.12700
C408        C  0.35823467  0.50127618  0.84929977     0.00900
C409        C  0.33330420  0.49918796  0.83261368    -0.11300
C410        C  0.33543909  0.02396493  0.81572720     0.03400
C411        C  0.36240987  0.05050274  0.81626898    -0.10700
H412        H  0.40417262  0.03042295  0.86141697     0.09000
H413        H  0.31257764  0.47866446  0.83285502     0.06500
H414        H  0.36471920  0.06965699  0.80326353     0.06400
O415        O  0.31506353  0.04960631  0.71263950    -0.72700
O416        O  0.25977810  0.04800575  0.78477449    -0.73600
O417        O  0.31395774  0.04714920  0.78431649    -0.62300
O418        O  0.26051195  0.05054122  0.71316671    -0.70700
O419        O  0.23569380  0.00191573  0.71425232    -0.70200
O420        O  0.28930730  0.49853200  0.78536284    -0.61500
O421        O  0.23464451  0.49938324  0.78591771    -0.74000
O422        O  0.28987505  0.00098047  0.71362305    -0.72800
Cu423      Cu  0.28820079  0.05048950  0.74886598     1.04600
Cu424      Cu  0.26150917  0.49852640  0.74962514     1.04300
C425        C  0.31181655  0.02501825  0.70295882     0.93500
C426        C  0.23787073  0.02397870  0.79552853     0.92700
C427        C  0.31128703  0.02294129  0.79486577     0.84800
C428        C  0.23841956  0.02617627  0.70381001     0.91100
O429        O  0.04815587  0.25907818  0.71436863    -0.72700
O430        O  0.05060887  0.31525037  0.78584590    -0.73600
O431        O  0.05054135  0.26021070  0.78608114    -0.62300
O432        O  0.04825346  0.31367836  0.71412123    -0.70700
O433        O  0.49951932  0.28943777  0.71296293    -0.70200
O434        O  0.00181160  0.23599171  0.78492944    -0.61500
O435        O  0.00186919  0.29060739  0.78467237    -0.74000
O436        O  0.99941652  0.23438622  0.71320031    -0.69200
Cu437      Cu  0.05105783  0.28788956  0.74996120     1.04600
Cu438      Cu  0.49897902  0.26176102  0.74907876     1.04300
C439        C  0.02394919  0.23724892  0.70374936     0.93500
C440        C  0.02608984  0.31242559  0.79529391     0.92700
C441        C  0.02598216  0.23850017  0.79566172     0.84800
C442        C  0.02408001  0.31117366  0.70342248     0.91100
C443        C  0.32968276  0.02561957  0.49831333     0.03400
C444        C  0.35437541  0.04813209  0.51443455    -0.12700
C445        C  0.38103008  0.04818393  0.51543998     0.00900
C446        C  0.38279945  0.02513817  0.49925156    -0.11300
C447        C  0.35781502  0.00224811  0.98270265     0.03400
C448        C  0.33141652  0.00274986  0.98279856    -0.10700
H449        H  0.35226305  0.06505409  0.52756318     0.09000
H450        H  0.40327465  0.02495294  0.49964436     0.06500
H451        H  0.31215073  0.48573327  0.96975638     0.06400
C452        C  0.22012348  0.02487286  0.00108244     0.03400
C453        C  0.19543923  0.00225772  0.98509665    -0.12700
C454        C  0.16862673  0.00188670  0.98445730     0.00900
C455        C  0.16669796  0.02477284  0.00087416    -0.11300
C456        C  0.19169734  0.04778883  0.51730316     0.03400
C457        C  0.21825982  0.04759152  0.51678388    -0.10700
H458        H  0.19766722  0.48546466  0.97181608     0.09000
H459        H  0.14609956  0.02471867  0.00078064     0.06500
H460        H  0.23754785  0.06468277  0.52971238     0.06400
C461        C  0.02571019  0.22087539  0.50103296     0.03400
C462        C  0.04816773  0.21885452  0.98479592    -0.12700
C463        C  0.04794818  0.19216184  0.98345963     0.00900
C464        C  0.02484989  0.16722525  0.49977092    -0.11300
C465        C  0.00216273  0.16925126  0.51667426     0.03400
C466        C  0.00277443  0.19615029  0.51654632    -0.10700
H467        H  0.06527779  0.23809767  0.97192349     0.09000
H468        H  0.02452570  0.14654177  0.49930433     0.06500
H469        H  0.48585734  0.19835725  0.52963443     0.06400
C470        C  0.02502824  0.32944698  0.00022935     0.03400
C471        C  0.00222297  0.33123264  0.51590688    -0.12700
C472        C  0.00185413  0.35763918  0.51634444     0.00900
C473        C  0.02470308  0.38251361  0.99965799    -0.11300
C474        C  0.04777058  0.38072307  0.98338294     0.03400
C475        C  0.04776502  0.35413455  0.98447723    -0.10700
H476        H  0.48526079  0.31203161  0.52899741     0.09000
H477        H  0.02456853  0.40296860  0.99940759     0.06500
H478        H  0.06494243  0.35207594  0.97182818     0.06400
C479        C  0.05358718  0.19160136  0.66591802     0.03400
C480        C  0.02878187  0.16879826  0.65028853    -0.12700
C481        C  0.50192470  0.16837364  0.64984341     0.00900
C482        C  0.50000599  0.19123082  0.66641310    -0.11300
C483        C  0.02502160  0.21426581  0.68283034     0.03400
C484        C  0.05164882  0.21417863  0.68195221    -0.10700
H485        H  0.03091679  0.15183667  0.63727002     0.09000
H486        H  0.47936703  0.19109488  0.66652900     0.06500
H487        H  0.07090551  0.23118102  0.69501540     0.06400
C488        C  0.16252033  0.19083710  0.66728120     0.03400
C489        C  0.16468954  0.16851537  0.65102540    -0.12700
C490        C  0.19138980  0.16862092  0.65016268     0.00900
C491        C  0.21628939  0.19158117  0.66680710    -0.11300
C492        C  0.21419337  0.21424772  0.68359304     0.03400
C493        C  0.18721095  0.21361853  0.68320534    -0.10700
H494        H  0.14555300  0.15159584  0.63770348     0.09000
H495        H  0.23699182  0.19184802  0.66662132     0.06500
H496        H  0.18493629  0.23044872  0.69634664     0.06400
O497        O  0.16587212  0.12268187  0.54666126    -0.72700
O498        O  0.16849891  0.06987417  0.61878869    -0.73600
O499        O  0.16843685  0.12410259  0.61827422    -0.62300
O500        O  0.16607149  0.06797540  0.54722093    -0.70700
O501        O  0.21482653  0.09271997  0.54843625    -0.70200
O502        O  0.21718287  0.14890215  0.61954064    -0.61500
O503        O  0.21723708  0.09408676  0.62006263    -0.74000
O504        O  0.21461369  0.14698880  0.54784167    -0.72800
Cu505      Cu  0.16555599  0.09532307  0.58286516     1.04600
Cu506      Cu  0.21765965  0.12154023  0.58380965     1.04300
C507        C  0.19040777  0.14436168  0.53705699     0.93500
C508        C  0.19264356  0.07244232  0.62965257     0.92700
C509        C  0.19260533  0.14589328  0.62901056     0.84800
C510        C  0.19062661  0.07085312  0.53789661     0.91100
C511        C  0.35840740  0.38673862  0.66638576     0.03400
C512        C  0.33598185  0.36221003  0.68275533    -0.12700
C513        C  0.33577657  0.33552205  0.68358336     0.00900
C514        C  0.35857834  0.33356204  0.66684734    -0.11300
C515        C  0.38136949  0.35838026  0.64998697     0.03400
C516        C  0.38111261  0.38486375  0.65054726    -0.10700
H517        H  0.31910419  0.36441719  0.69592462     0.09000
H518        H  0.35857248  0.31303713  0.66691324     0.06500
H519        H  0.39803082  0.40402847  0.63735236     0.06400
C520        C  0.35758659  0.49539927  0.66539323     0.03400
C521        C  0.33472694  0.49720288  0.68098333    -0.12700
C522        C  0.33459929  0.02375312  0.68181083     0.00900
C523        C  0.35762026  0.04868003  0.66538474    -0.11300
C524        C  0.38052833  0.04680740  0.64882252     0.03400
C525        C  0.38024184  0.02007356  0.64943760    -0.10700
H526        H  0.31762807  0.47796027  0.69387579     0.09000
H527        H  0.35772977  0.06925804  0.66553616     0.06500
H528        H  0.39723760  0.01797013  0.63641279     0.06400
O529        O  0.48188493  0.38326362  0.54671112    -0.72700
O530        O  0.42601033  0.38125843  0.61813452    -0.73600
O531        O  0.48037799  0.38093712  0.61832773    -0.62300
O532        O  0.42711547  0.38357318  0.54652142    -0.70700
O533        O  0.40264203  0.33494632  0.54771023    -0.70200
O534        O  0.45600514  0.33231127  0.61948078    -0.61500
O535        O  0.40116710  0.33263238  0.61940081    -0.74000
O536        O  0.45702406  0.33462961  0.54784260    -0.72800
Cu537      Cu  0.45469761  0.38392232  0.58256518     1.04600
Cu538      Cu  0.42834398  0.33194690  0.58345945     1.04300
C539        C  0.47888749  0.35874302  0.53721857     0.93500
C540        C  0.40418975  0.35717493  0.62888007     0.92700
C541        C  0.47783319  0.35681297  0.62897961     0.84800
C542        C  0.40526026  0.35909738  0.53703271     0.91100
O543        O  0.45729980  0.14727561  0.54808447    -0.72700
O544        O  0.40091036  0.09279079  0.61894244    -0.73600
O545        O  0.45597869  0.14802854  0.61963335    -0.62300
O546        O  0.40273119  0.09260001  0.54741061    -0.70700
O547        O  0.42676218  0.06815362  0.54599202    -0.70200
O548        O  0.48015188  0.12372776  0.61813873    -0.61500
O549        O  0.42548257  0.06889286  0.61752401    -0.74000
O550        O  0.48178820  0.12329190  0.54654364    -0.72800
Cu551      Cu  0.42838534  0.12099220  0.58339392     1.04600
Cu552      Cu  0.45439361  0.09518632  0.58218956     1.04300
C553        C  0.47904649  0.14500309  0.53734553     0.93500
C554        C  0.40365992  0.07108615  0.62815693     0.92700
C555        C  0.47772433  0.14532581  0.62897672     0.84800
C556        C  0.40512325  0.07100082  0.53655114     0.91100
C557        C  0.22040402  0.21947923  0.99881246     0.03400
C558        C  0.21837732  0.19480637  0.51435319    -0.12700
C559        C  0.19151023  0.16824530  0.51586707     0.00900
C560        C  0.16638254  0.16644548  0.00012277    -0.11300
C561        C  0.16845529  0.19136379  0.98373229     0.03400
C562        C  0.19552379  0.21776970  0.98396696    -0.10700
H563        H  0.23773861  0.19692231  0.52678882     0.09000
H564        H  0.14556967  0.14601815  0.00064377     0.06500
H565        H  0.19776684  0.23705325  0.97136078     0.06400
C566        C  0.32947379  0.32950174  0.00016275     0.03400
C567        C  0.35433911  0.33138606  0.51522157    -0.12700
C568        C  0.38113427  0.35803762  0.51622657     0.00900
C569        C  0.38299370  0.38306042  0.00037553    -0.11300
C570        C  0.35792004  0.38113294  0.98435006     0.03400
C571        C  0.33127940  0.35427124  0.98505656    -0.10700
H572        H  0.35225214  0.31204342  0.52749852     0.09000
H573        H  0.40362055  0.40368780  0.00048474     0.06500
H574        H  0.31193680  0.35207292  0.97247139     0.06400
C575        C  0.49664963  0.35820299  0.83335078     0.03400
C576        C  0.02141441  0.38076686  0.84932841    -0.12700
C577        C  0.04823162  0.38106743  0.84983143     0.00900
C578        C  0.05006840  0.35823060  0.83305388    -0.11300
C579        C  0.02508062  0.33545104  0.81622984     0.03400
C580        C  0.49854847  0.33576482  0.81691386    -0.10700
H581        H  0.01942602  0.39794832  0.86196049     0.09000
H582        H  0.07062702  0.35820567  0.83305206     0.06500
H583        H  0.47913720  0.31865757  0.80416769     0.06400
C584        C  0.38750905  0.35858080  0.83392119     0.03400
C585        C  0.38530595  0.38075882  0.85056757    -0.12700
C586        C  0.35863954  0.38080093  0.85120512     0.00900
C587        C  0.33380504  0.35798133  0.83428947    -0.11300
C588        C  0.33591246  0.33539738  0.81731249     0.03400
C589        C  0.36287305  0.33596914  0.81773178    -0.10700
H590        H  0.40460408  0.39791986  0.86342496     0.09000
H591        H  0.31314765  0.35781229  0.83431554     0.06500
H592        H  0.36504808  0.31897499  0.80489493     0.06400
O593        O  0.38339411  0.48183329  0.95327840    -0.72700
O594        O  0.38147840  0.42561897  0.88263553    -0.73600
O595        O  0.38118043  0.47998976  0.88169198    -0.62300
O596        O  0.38356152  0.42705408  0.95418798    -0.70700
O597        O  0.33482357  0.40267995  0.95280842    -0.70200
O598        O  0.33245448  0.45565161  0.88025745    -0.61500
O599        O  0.33273903  0.40078989  0.88115773    -0.74000
O600        O  0.33463875  0.45710961  0.95191530    -0.72800
Cu601      Cu  0.38406408  0.45447130  0.91783303     1.04600
Cu602      Cu  0.33197460  0.42820373  0.91668574     1.04300
C603        C  0.35883043  0.47902033  0.96241627     0.93500
C604        C  0.35736270  0.40371591  0.87198203     0.92700
C605        C  0.35702359  0.47737640  0.87072834     0.84800
C606        C  0.35900767  0.40525603  0.96359064     0.91100
C607        C  0.19263474  0.05399117  0.83372105     0.03400
C608        C  0.17031698  0.02952804  0.85040771    -0.12700
C609        C  0.16994394  0.50273388  0.85108507     0.00900
C610        C  0.19258991  0.50065560  0.83410570    -0.11300
C611        C  0.21519466  0.02532290  0.81682346     0.03400
C612        C  0.21488666  0.05178107  0.81713767    -0.10700
H613        H  0.15356426  0.03180336  0.86379445     0.09000
H614        H  0.19253907  0.48010817  0.83418604     0.06500
H615        H  0.23143517  0.07065030  0.80319837     0.06400
C616        C  0.19068966  0.16226510  0.83208308     0.03400
C617        C  0.16849524  0.16441337  0.84891747    -0.12700
C618        C  0.16852473  0.19104267  0.85005116     0.00900
C619        C  0.19140086  0.21592640  0.83339490    -0.11300
C620        C  0.21395685  0.21388806  0.81619248     0.03400
C621        C  0.21323836  0.18693591  0.81598295    -0.10700
H622        H  0.15173016  0.14535426  0.86239064     0.09000
H623        H  0.19169755  0.23659287  0.83390069     0.06500
H624        H  0.22992090  0.18471554  0.80234902     0.06400
O625        O  0.09263464  0.21500834  0.95169502    -0.72700
O626        O  0.14879958  0.21684293  0.88070088    -0.73600
O627        O  0.09395245  0.21729617  0.88003661    -0.62300
O628        O  0.14695997  0.21455295  0.95237735    -0.70700
O629        O  0.12238328  0.16592545  0.95355792    -0.70200
O630        O  0.06947254  0.16867496  0.88119650    -0.61500
O631        O  0.12386499  0.16822021  0.88193267    -0.74000
O632        O  0.06764994  0.16638103  0.95283937    -0.72800
Cu633      Cu  0.12144874  0.21760356  0.91634607     1.04600
Cu634      Cu  0.09498725  0.16563522  0.91723619     1.04300
C635        C  0.07072413  0.19093748  0.96232338     0.93500
C636        C  0.14576777  0.19228376  0.87127142     0.92700
C637        C  0.07207837  0.19282226  0.87051675     0.84800
C638        C  0.14427426  0.19037503  0.96306905     0.91100
O639        O  0.06791895  0.42640209  0.95287846    -0.72700
O640        O  0.12492509  0.48076555  0.88230460    -0.73600
O641        O  0.07014751  0.42585890  0.88129462    -0.62300
O642        O  0.12289707  0.48159481  0.95380778    -0.70700
O643        O  0.14710088  0.45731567  0.95275814    -0.70200
O644        O  0.09412920  0.40136835  0.88045058    -0.61500
O645        O  0.14939498  0.45676566  0.88120871    -0.74000
O646        O  0.09262641  0.40263129  0.95204480    -0.72800
Cu647      Cu  0.09562667  0.45447563  0.91739655     1.04600
Cu648      Cu  0.12165690  0.42869407  0.91676119     1.04300
C649        C  0.07077184  0.40484656  0.96247626     0.93500
C650        C  0.14677515  0.47852356  0.87186918     0.92700
C651        C  0.07247889  0.40412583  0.87076350     0.84800
C652        C  0.14457027  0.47888855  0.96344505     0.91100
O653        O  0.26020501  0.23472107  0.71378070    -0.72700
O654        O  0.31402576  0.29068816  0.78562659    -0.73600
O655        O  0.25906231  0.23599373  0.78527349    -0.62300
O656        O  0.31552759  0.28978854  0.71401926    -0.70700
O657        O  0.29103983  0.31377264  0.71521666    -0.70200
O658        O  0.23457963  0.25998801  0.78647921    -0.61500
O659        O  0.28998679  0.31511934  0.78685202    -0.74000
O660        O  0.23612544  0.25911887  0.71496166    -0.72800
Cu661      Cu  0.28804329  0.26197421  0.74982916     1.04600
Cu662      Cu  0.26211373  0.28785292  0.75073791     1.04300
C663        C  0.23845134  0.23740160  0.70435905     0.93500
C664        C  0.31170085  0.31237889  0.79632449     0.92700
C665        C  0.23722543  0.23823595  0.79574335     0.84800
C666        C  0.31277928  0.31143687  0.70457378     0.91100
C667        C  0.16625363  0.08158783  0.82472662    -0.21000
C668        C  0.19231199  0.08180960  0.83310970    -0.09100
C669        C  0.21777687  0.10859926  0.84093076     0.29800
C670        C  0.21704934  0.13464159  0.84042556    -0.21000
C671        C  0.19097901  0.13442608  0.83216500    -0.09100
C672        C  0.16553359  0.10765601  0.82419479     0.29800
F673        F  0.14019864  0.10675718  0.81509661    -0.19600
H674        H  0.14655616  0.06124958  0.81817435     0.18200
H675        H  0.23674826  0.15495664  0.84704434     0.18200
F676        F  0.24313067  0.10953666  0.85002134    -0.19600
C677        C  0.45428936  0.35635990  0.80277538    -0.21000
C678        C  0.46869744  0.35827587  0.83364142    -0.09100
C679        C  0.45647039  0.36060817  0.86457794     0.29800
C680        C  0.43013241  0.36092457  0.86448206    -0.21000
C681        C  0.41564959  0.35886853  0.83362146    -0.09100
C682        C  0.42800550  0.35677799  0.80267248     0.29800
F683        F  0.41500829  0.35585161  0.77236450    -0.19600
H684        H  0.46368507  0.35497422  0.77867858     0.18200
H685        H  0.42074816  0.36232074  0.88858089     0.18200
F686        F  0.46963516  0.36185771  0.89487167    -0.19600
C687        C  0.24900780  0.27308472  0.51006317    -0.21000
C688        C  0.24845895  0.24751846  0.99900597    -0.09100
C689        C  0.27471581  0.24895592  0.98863748     0.29800
C690        C  0.30103440  0.27574370  0.98906799    -0.21000
C691        C  0.30152913  0.30134229  0.99995516    -0.09100
C692        C  0.27534299  0.29980410  0.51074233     0.29800
F693        F  0.27537929  0.32393810  0.52285998    -0.19600
H694        H  0.22905195  0.27222610  0.51874966     0.18200
H695        H  0.32102092  0.27659831  0.98052444     0.18200
F696        F  0.27481629  0.22464652  0.97741972    -0.19600
C697        C  0.38326925  0.44066236  0.67598540    -0.21000
C698        C  0.35812239  0.41451122  0.66593436    -0.09100
C699        C  0.33279823  0.41505446  0.65570362     0.29800
C700        C  0.33270459  0.44143066  0.65575065    -0.21000
C701        C  0.35785905  0.46759826  0.66579639    -0.09100
C702        C  0.38318426  0.46703700  0.67602191     0.29800
F703        F  0.40755948  0.49184113  0.68685493    -0.19600
H704        H  0.40284771  0.44054705  0.68430339     0.18200
H705        H  0.31312075  0.44153455  0.64743254     0.18200
F706        F  0.30844893  0.39023003  0.64485305    -0.19600
C707        C  0.08171497  0.16591967  0.67544015    -0.21000
C708        C  0.08151727  0.19146953  0.66594229    -0.09100
C709        C  0.10797870  0.21661522  0.65651443     0.29800
C710        C  0.13426672  0.21625832  0.65715611    -0.21000
C711        C  0.13450522  0.19079010  0.66689160    -0.09100
C712        C  0.10797756  0.16550205  0.67588407     0.29800
F713        F  0.10752961  0.14065165  0.68590688    -0.19600
H714        H  0.06158556  0.14643542  0.68297299     0.18200
H715        H  0.15439044  0.23571804  0.64955377     0.18200
F716        F  0.10831084  0.24124687  0.64581862    -0.19600
C717        C  0.05030037  0.30119173  0.01152098    -0.21000
C718        C  0.02518330  0.30164103  0.50038389    -0.09100
C719        C  0.50039132  0.27551958  0.48936925     0.29800
C720        C  0.00068348  0.24927081  0.48985546    -0.21000
C721        C  0.02574821  0.24878040  0.50105738    -0.09100
C722        C  0.05063258  0.27493399  0.01188884     0.29800
F723        F  0.07495013  0.27496171  0.02352729    -0.19600
H724        H  0.06946645  0.32110072  0.02029625     0.18200
H725        H  0.48153234  0.22938698  0.48098604     0.18200
F726        F  0.47622400  0.27554221  0.47727915    -0.19600
C727        C  0.27573769  0.49999639  0.50818350    -0.21000
C728        C  0.30168312  0.02554467  0.99862565    -0.09100
C729        C  0.30070676  0.05090734  0.99003448     0.29800
C730        C  0.27410357  0.05058460  0.99114314    -0.21000
C731        C  0.24816048  0.02502620  0.00069999    -0.09100
C732        C  0.24914656  0.49967150  0.50928828     0.29800
F733        F  0.22456743  0.47483284  0.51952942    -0.19600
H734        H  0.27617493  0.48038534  0.51536960     0.18200
H735        H  0.27365308  0.07019244  0.98397790     0.18200
F736        F  0.32529620  0.07573869  0.97980132    -0.19600
C737        C  0.46773442  0.10939934  0.82340348    -0.21000
C738        C  0.46800170  0.13498090  0.83390562    -0.09100
C739        C  0.44154220  0.13331459  0.84383651     0.29800
C740        C  0.41528496  0.10642986  0.84308373    -0.21000
C741        C  0.41503793  0.08086080  0.83257497    -0.09100
C742        C  0.44148348  0.08252915  0.82263934     0.29800
F743        F  0.44180583  0.05836444  0.81131871    -0.19600
H744        H  0.48785817  0.11034635  0.81525644     0.18200
H745        H  0.39513892  0.10546506  0.85117094     0.18200
F746        F  0.44119099  0.15749129  0.85505590    -0.19600
C747        C  0.08190697  0.44022346  0.67765896    -0.21000
C748        C  0.08158525  0.41492395  0.66588475    -0.09100
C749        C  0.10779864  0.41691503  0.65438659     0.29800
C750        C  0.13400135  0.44380532  0.65520765    -0.21000
C751        C  0.13437751  0.46905788  0.66722007    -0.09100
C752        C  0.10809726  0.46715356  0.67834183     0.29800
F753        F  0.10789514  0.49111935  0.69064603    -0.19600
H754        H  0.06188589  0.43899566  0.68676211     0.18200
H755        H  0.15400733  0.44504001  0.64602507     0.18200
F756        F  0.10790840  0.39305849  0.64155704    -0.19600
C757        C  0.05375631  0.88662560  0.16560829     0.03400
C758        C  0.05193924  0.86200124  0.18117954    -0.12700
C759        C  0.02520698  0.83519334  0.18235227     0.00900
C760        C  0.50011394  0.83315298  0.16621157    -0.11300
C761        C  0.50202818  0.85798436  0.14978029     0.03400
C762        C  0.02889201  0.88458940  0.15036142    -0.10700
H763        H  0.07131946  0.86429946  0.19377987     0.09000
H764        H  0.47943235  0.81258705  0.16645157     0.06500
H765        H  0.03100761  0.90382308  0.13774939     0.06400
C766        C  0.16232556  0.99722318  0.16787112     0.03400
C767        C  0.18709239  0.49896073  0.18306052    -0.12700
C768        C  0.21418027  0.52535387  0.18341737     0.00900
C769        C  0.21636189  0.55029866  0.16697492    -0.11300
C770        C  0.19134627  0.54851896  0.15096002     0.03400
C771        C  0.16443162  0.52193454  0.15230904    -0.10700
H772        H  0.18477882  0.97963363  0.19564122     0.09000
H773        H  0.23719651  0.57070228  0.16652140     0.06500
H774        H  0.14512581  0.51981127  0.13970806     0.06400
C775        C  0.49598437  0.66323544  0.33415896     0.03400
C776        C  0.99800993  0.68782971  0.31825829    -0.12700
C777        C  0.02482569  0.71453504  0.31689505     0.00900
C778        C  0.04989522  0.71651050  0.33305171    -0.11300
C779        C  0.04785709  0.69171249  0.34973964     0.03400
C780        C  0.02083733  0.66522656  0.34947904    -0.10700
H781        H  0.47871322  0.68557875  0.30551051     0.09000
H782        H  0.07065372  0.73699621  0.33261814     0.06500
H783        H  0.01862371  0.64606095  0.36235526     0.06400
C784        C  0.38709137  0.55259946  0.33215070     0.03400
C785        C  0.38498286  0.52806459  0.34828061    -0.12700
C786        C  0.35823463  0.00127612  0.34929978     0.00900
C787        C  0.33330420  0.99918796  0.33261369    -0.11300
C788        C  0.33543915  0.52396497  0.31572717     0.03400
C789        C  0.36240990  0.55050267  0.31626892    -0.10700
H790        H  0.40417266  0.53042292  0.36141690     0.09000
H791        H  0.31257744  0.97866425  0.33285507     0.06500
H792        H  0.36471927  0.56965717  0.30326328     0.06400
O793        O  0.31506354  0.54960633  0.21263949    -0.72700
O794        O  0.25977810  0.54800580  0.28477447    -0.73600
O795        O  0.31395776  0.54714922  0.28431650    -0.62300
O796        O  0.26051198  0.55054122  0.21316666    -0.70700
O797        O  0.23569379  0.50191573  0.21425237    -0.70200
O798        O  0.28930725  0.99853194  0.28536287    -0.61500
O799        O  0.23464452  0.99938325  0.28591775    -0.74000
O800        O  0.28987506  0.50098049  0.21362311    -0.72800
Cu801      Cu  0.28820081  0.55048954  0.24886597     1.04600
Cu802      Cu  0.26150918  0.99852640  0.24962517     1.04300
C803        C  0.31181656  0.52501824  0.20295885     0.93500
C804        C  0.23787074  0.52397874  0.29552855     0.92700
C805        C  0.31128705  0.52294129  0.29486579     0.84800
C806        C  0.23841959  0.52617629  0.20380998     0.91100
O807        O  0.04815589  0.75907823  0.21436861    -0.72700
O808        O  0.05060891  0.81525043  0.28584587    -0.73600
O809        O  0.05054133  0.76021071  0.28608113    -0.62300
O810        O  0.04825356  0.81367843  0.21412123    -0.70700
O811        O  0.49951940  0.78943779  0.21296289    -0.70200
O812        O  0.00181159  0.73599172  0.28492941    -0.61500
O813        O  0.00186923  0.79060744  0.28467233    -0.74000
O814        O  0.99941655  0.73438626  0.21320029    -0.69200
Cu815      Cu  0.05105786  0.78788961  0.24996120     1.04600
Cu816      Cu  0.49897913  0.76176107  0.24907875     1.04300
C817        C  0.02394921  0.73724895  0.20374936     0.93500
C818        C  0.02608988  0.81242565  0.29529386     0.92700
C819        C  0.02598215  0.73850018  0.29566170     0.84800
C820        C  0.02408012  0.81117372  0.20342245     0.91100
C821        C  0.32968286  0.52561963  0.99831326     0.03400
C822        C  0.35437544  0.54813224  0.01443459    -0.12700
C823        C  0.38103016  0.54818392  0.01543995     0.00900
C824        C  0.38279930  0.52513817  0.99925155    -0.11300
C825        C  0.35781501  0.50224807  0.48270267     0.03400
C826        C  0.33141651  0.50274980  0.48279861    -0.10700
H827        H  0.35226317  0.56505361  0.02756274     0.09000
H828        H  0.40327545  0.52495290  0.99964440     0.06500
H829        H  0.31214995  0.98573257  0.46975598     0.06400
C830        C  0.22012350  0.52487293  0.50108248     0.03400
C831        C  0.19543926  0.50225767  0.48509657    -0.12700
C832        C  0.16862675  0.50188680  0.48445733     0.00900
C833        C  0.16669803  0.52477291  0.50087418    -0.11300
C834        C  0.19169737  0.54778881  0.01730311     0.03400
C835        C  0.21825998  0.54759160  0.01678389    -0.10700
H836        H  0.19766713  0.98546514  0.47181649     0.09000
H837        H  0.14609947  0.52471875  0.50078066     0.06500
H838        H  0.23754745  0.56468234  0.02971202     0.06400
C839        C  0.02571014  0.72087535  0.00103288     0.03400
C840        C  0.04816794  0.71885474  0.48479590    -0.12700
C841        C  0.04794816  0.69216184  0.48345964     0.00900
C842        C  0.02484989  0.66722512  0.99977094    -0.11300
C843        C  0.00216271  0.66925124  0.01667424     0.03400
C844        C  0.00277439  0.69615024  0.01654628    -0.10700
H845        H  0.06527732  0.73809712  0.47192407     0.09000
H846        H  0.02452574  0.64654218  0.99930438     0.06500
H847        H  0.48585735  0.69835722  0.02963438     0.06400
C848        C  0.02502831  0.82944703  0.50022950     0.03400
C849        C  0.00222294  0.83123260  0.01590681    -0.12700
C850        C  0.00185414  0.85763922  0.01634441     0.00900
C851        C  0.02470307  0.88251363  0.49965800    -0.11300
C852        C  0.04777057  0.88072309  0.48338300     0.03400
C853        C  0.04776522  0.85413460  0.48447725    -0.10700
H854        H  0.48526073  0.81203158  0.02899734     0.09000
H855        H  0.02456847  0.90296854  0.49940757     0.06500
H856        H  0.06494201  0.85207608  0.47182873     0.06400
C857        C  0.05358719  0.69160133  0.16591812     0.03400
C858        C  0.02878187  0.66879834  0.15028873    -0.12700
C859        C  0.50192472  0.66837362  0.14984350     0.00900
C860        C  0.50000603  0.69123084  0.16641319    -0.11300
C861        C  0.02502162  0.71426582  0.18283041     0.03400
C862        C  0.05164885  0.71417864  0.18195230    -0.10700
H863        H  0.03091683  0.65183626  0.13726983     0.09000
H864        H  0.47936708  0.69109492  0.16652906     0.06500
H865        H  0.07090554  0.73118105  0.19501547     0.06400
C866        C  0.16252034  0.69083707  0.16728119     0.03400
C867        C  0.16468943  0.66851525  0.15102529    -0.12700
C868        C  0.19138985  0.66862096  0.15016262     0.00900
C869        C  0.21628939  0.69158120  0.16680702    -0.11300
C870        C  0.21419339  0.71424773  0.18359297     0.03400
C871        C  0.18721094  0.71361856  0.18320531    -0.10700
H872        H  0.14555349  0.65159624  0.13770379     0.09000
H873        H  0.23699194  0.69184807  0.16662123     0.06500
H874        H  0.18493630  0.73044862  0.19634649     0.06400
O875        O  0.16587217  0.62268186  0.04666119    -0.72700
O876        O  0.16849896  0.56987421  0.11878870    -0.73600
O877        O  0.16843690  0.62410261  0.11827416    -0.62300
O878        O  0.16607158  0.56797541  0.04722094    -0.70700
O879        O  0.21482661  0.59272000  0.04843617    -0.70200
O880        O  0.21718292  0.64890218  0.11954054    -0.61500
O881        O  0.21723713  0.59408677  0.12006260    -0.74000
O882        O  0.21461373  0.64698881  0.04784159    -0.72800
Cu883      Cu  0.16555607  0.59532310  0.08286512     1.04600
Cu884      Cu  0.21765971  0.62154025  0.08380958     1.04300
C885        C  0.19040782  0.64436169  0.03705692     0.93500
C886        C  0.19264360  0.57244233  0.12965255     0.92700
C887        C  0.19260535  0.64589329  0.12901049     0.84800
C888        C  0.19062670  0.57085314  0.03789658     0.91100
C889        C  0.35840735  0.88673856  0.16638567     0.03400
C890        C  0.33598181  0.86220998  0.18275529    -0.12700
C891        C  0.33577656  0.83552201  0.18358334     0.00900
C892        C  0.35857832  0.83356200  0.16684731    -0.11300
C893        C  0.38136945  0.85838021  0.14998690     0.03400
C894        C  0.38111254  0.88486369  0.15054718    -0.10700
H895        H  0.31910423  0.86441713  0.19592453     0.09000
H896        H  0.35857248  0.81303709  0.16691322     0.06500
H897        H  0.39803077  0.90402844  0.13735225     0.06400
C898        C  0.35758650  0.99539920  0.16539315     0.03400
C899        C  0.33472693  0.99720287  0.18098318    -0.12700
C900        C  0.33459930  0.52375317  0.18181082     0.00900
C901        C  0.35762027  0.54867982  0.16538478    -0.11300
C902        C  0.38052828  0.54680743  0.14882254     0.03400
C903        C  0.38024194  0.52007348  0.14943738    -0.10700
H904        H  0.31762774  0.97795995  0.19387579     0.09000
H905        H  0.35772985  0.56925897  0.16553630     0.06500
H906        H  0.39723671  0.51797015  0.13641324     0.06400
O907        O  0.48188499  0.88326365  0.04671112    -0.72700
O908        O  0.42601030  0.88125842  0.11813446    -0.73600
O909        O  0.48037796  0.88093715  0.11832776    -0.62300
O910        O  0.42711553  0.88357321  0.04652138    -0.70700
O911        O  0.40264209  0.83494637  0.04771018    -0.70200
O912        O  0.45600514  0.83231131  0.11948076    -0.61500
O913        O  0.40116709  0.83263238  0.11940073    -0.74000
O914        O  0.45702408  0.83462964  0.04784256    -0.72800
Cu915      Cu  0.45469761  0.88392233  0.08256516     1.04600
Cu916      Cu  0.42834401  0.83194695  0.08345940     1.04300
C917        C  0.47888752  0.85874303  0.03721854     0.93500
C918        C  0.40418971  0.85717492  0.12887999     0.92700
C919        C  0.47783319  0.85681304  0.12897963     0.84800
C920        C  0.40526030  0.85909742  0.03703269     0.91100
O921        O  0.45729984  0.64727562  0.04808454    -0.72700
O922        O  0.40091040  0.59279083  0.11894251    -0.73600
O923        O  0.45597870  0.64802855  0.11963341    -0.62300
O924        O  0.40273120  0.59259999  0.04741068    -0.70700
O925        O  0.42676220  0.56815360  0.04599206    -0.70200
O926        O  0.48015189  0.62372776  0.11813877    -0.61500
O927        O  0.42548257  0.56889284  0.11752405    -0.74000
O928        O  0.48178820  0.62329187  0.04654368    -0.72800
Cu929      Cu  0.42838535  0.62099222  0.08339398     1.04600
Cu930      Cu  0.45439361  0.59518631  0.08218961     1.04300
C931        C  0.47904649  0.64500307  0.03734557     0.93500
C932        C  0.40365994  0.57108614  0.12815696     0.92700
C933        C  0.47772434  0.64532583  0.12897678     0.84800
C934        C  0.40512327  0.57100081  0.03655118     0.91100
C935        C  0.22040396  0.71947922  0.49881244     0.03400
C936        C  0.21837741  0.69480637  0.01435317    -0.12700
C937        C  0.19151023  0.66824530  0.01586701     0.00900
C938        C  0.16638263  0.66644555  0.50012282    -0.11300
C939        C  0.16845525  0.69136374  0.48373230     0.03400
C940        C  0.19552375  0.71776956  0.48396700    -0.10700
H941        H  0.23773830  0.69692224  0.02678852     0.09000
H942        H  0.14556918  0.64601766  0.50064385     0.06500
H943        H  0.19776684  0.73705361  0.47136046     0.06400
C944        C  0.32947380  0.82950168  0.50016261     0.03400
C945        C  0.35433912  0.83138611  0.01522162    -0.12700
C946        C  0.38113428  0.85803764  0.01622663     0.00900
C947        C  0.38299373  0.88306043  0.50037545    -0.11300
C948        C  0.35792001  0.88113289  0.48435000     0.03400
C949        C  0.33127936  0.85427118  0.48505646    -0.10700
H950        H  0.35225216  0.81204335  0.02749870     0.09000
H951        H  0.40362026  0.90368753  0.50048468     0.06500
H952        H  0.31193688  0.85207287  0.47247140     0.06400
C953        C  0.49664962  0.85820294  0.33335073     0.03400
C954        C  0.02141441  0.88076701  0.34932848    -0.12700
C955        C  0.04823162  0.88106741  0.34983141     0.00900
C956        C  0.05006842  0.85823065  0.33305385    -0.11300
C957        C  0.02508061  0.83545105  0.31622978     0.03400
C958        C  0.49854871  0.83576502  0.31691401    -0.10700
H959        H  0.01942608  0.89794780  0.36196005     0.09000
H960        H  0.07062706  0.85820572  0.33305200     0.06500
H961        H  0.47913633  0.81865675  0.30416714     0.06400
C962        C  0.38750904  0.85858081  0.33392123     0.03400
C963        C  0.38530603  0.88075887  0.35056761    -0.12700
C964        C  0.35863953  0.88080093  0.35120513     0.00900
C965        C  0.33380502  0.85798131  0.33428948    -0.11300
C966        C  0.33591244  0.83539740  0.31731253     0.03400
C967        C  0.36287307  0.83596890  0.31773161    -0.10700
H968        H  0.40460378  0.89791958  0.36342476     0.09000
H969        H  0.31314770  0.85781229  0.33431556     0.06500
H970        H  0.36504796  0.81897596  0.30489568     0.06400
O971        O  0.38339407  0.98183332  0.45327840    -0.72700
O972        O  0.38147839  0.92561896  0.38263559    -0.73600
O973        O  0.38118040  0.97998973  0.38169199    -0.62300
O974        O  0.38356150  0.92705409  0.45418802    -0.70700
O975        O  0.33482355  0.90267993  0.45280841    -0.70200
O976        O  0.33245444  0.95565162  0.38025752    -0.61500
O977        O  0.33273902  0.90078990  0.38115771    -0.74000
O978        O  0.33463871  0.95710959  0.45191531    -0.72800
Cu979      Cu  0.38406406  0.95447131  0.41783306     1.04600
Cu980      Cu  0.33197455  0.92820372  0.41668574     1.04300
C981        C  0.35883041  0.97902033  0.46241629     0.93500
C982        C  0.35736269  0.90371590  0.37198206     0.92700
C983        C  0.35702356  0.97737639  0.37072837     0.84800
C984        C  0.35900764  0.90525602  0.46359065     0.91100
C985        C  0.19263476  0.55399120  0.33372107     0.03400
C986        C  0.17031698  0.52952806  0.35040773    -0.12700
C987        C  0.16994392  0.00273390  0.35108502     0.00900
C988        C  0.19258988  0.00065551  0.33410563    -0.11300
C989        C  0.21519467  0.52532295  0.31682346     0.03400
C990        C  0.21488664  0.55178109  0.31713773    -0.10700
H991        H  0.15356426  0.53180339  0.36379447     0.09000
H992        H  0.19253904  0.98010870  0.33418596     0.06500
H993        H  0.23143533  0.57065053  0.30319831     0.06400
C994        C  0.19068962  0.66226506  0.33208308     0.03400
C995        C  0.16849521  0.66441337  0.34891737    -0.12700
C996        C  0.16852472  0.69104265  0.35005120     0.00900
C997        C  0.19140086  0.71592637  0.33339496    -0.11300
C998        C  0.21395685  0.71388804  0.31619254     0.03400
C999        C  0.21323837  0.68693589  0.31598304    -0.10700
H1000       H  0.15172986  0.64535398  0.36239065     0.09000
H1001       H  0.19169758  0.73659294  0.33390078     0.06500
H1002       H  0.22992097  0.68471553  0.30234917     0.06400
O1003       O  0.09263463  0.71500837  0.45169500    -0.72700
O1004       O  0.14879962  0.71684292  0.38070098    -0.73600
O1005       O  0.09395248  0.71729617  0.38003659    -0.62300
O1006       O  0.14695991  0.71455292  0.45237743    -0.70700
O1007       O  0.12238328  0.66592542  0.45355788    -0.70200
O1008       O  0.06947253  0.66867497  0.38119652    -0.61500
O1009       O  0.12386495  0.66822020  0.38193264    -0.74000
O1010       O  0.06764994  0.66638106  0.45283939    -0.72800
Cu1011     Cu  0.12144875  0.71760357  0.41634610     1.04600
Cu1012     Cu  0.09498724  0.66563522  0.41723619     1.04300
C1013       C  0.07072414  0.69093754  0.46232337     0.93500
C1014       C  0.14576776  0.69228372  0.37127147     0.92700
C1015       C  0.07207837  0.69282227  0.37051677     0.84800
C1016       C  0.14427422  0.69037499  0.46306907     0.91100
O1017       O  0.06791897  0.92640211  0.45287852    -0.72700
O1018       O  0.12492506  0.98076555  0.38230457    -0.73600
O1019       O  0.07014751  0.92585890  0.38129465    -0.62300
O1020       O  0.12289708  0.98159488  0.45380774    -0.70700
O1021       O  0.14710088  0.95731573  0.45275814    -0.70200
O1022       O  0.09412918  0.90136833  0.38045061    -0.61500
O1023       O  0.14939496  0.95676568  0.38120870    -0.74000
O1024       O  0.09262643  0.90263131  0.45204485    -0.72800
Cu1025     Cu  0.09562667  0.95447566  0.41739655     1.04600
Cu1026     Cu  0.12165690  0.92869409  0.41676120     1.04300
C1027       C  0.07077185  0.90484658  0.46247630     0.93500
C1028       C  0.14677512  0.97852356  0.37186915     0.92700
C1029       C  0.07247887  0.90412582  0.37076353     0.84800
C1030       C  0.14457027  0.97888860  0.46344504     0.91100
O1031       O  0.26020500  0.73472103  0.21378068    -0.72700
O1032       O  0.31402576  0.79068813  0.28562660    -0.73600
O1033       O  0.25906229  0.73599368  0.28527349    -0.62300
O1034       O  0.31552759  0.78978849  0.21401925    -0.70700
O1035       O  0.29103986  0.81377264  0.21521671    -0.70200
O1036       O  0.23457961  0.75998795  0.28647922    -0.61500
O1037       O  0.28998677  0.81511929  0.28685207    -0.74000
O1038       O  0.23612546  0.75911887  0.21496163    -0.72800
Cu1039     Cu  0.28804327  0.76197416  0.24982915     1.04600
Cu1040     Cu  0.26211371  0.78785289  0.25073792     1.04300
C1041       C  0.23845134  0.73740160  0.20435901     0.93500
C1042       C  0.31170084  0.81237884  0.29632452     0.92700
C1043       C  0.23722542  0.73823591  0.29574339     0.84800
C1044       C  0.31277929  0.81143685  0.20457381     0.91100
C1045       C  0.16625386  0.58158804  0.32472657    -0.21000
C1046       C  0.19231196  0.58180958  0.33310972    -0.09100
C1047       C  0.21777685  0.60859927  0.34093098     0.29800
C1048       C  0.21704923  0.63464151  0.34042571    -0.21000
C1049       C  0.19097900  0.63442606  0.33216502    -0.09100
C1050       C  0.16553358  0.60765596  0.32419464     0.29800
F1051       F  0.14019870  0.60675718  0.31509626    -0.19600
H1052       H  0.14655542  0.56124876  0.31817388     0.18200
H1053       H  0.23674844  0.65495688  0.34704467     0.18200
F1054       F  0.24313060  0.60953664  0.35002176    -0.19600
C1055       C  0.45428931  0.85635977  0.30277543    -0.21000
C1056       C  0.46869745  0.85827585  0.33364146    -0.09100
C1057       C  0.45647042  0.86060819  0.36457795     0.29800
C1058       C  0.43013241  0.86092459  0.36448213    -0.21000
C1059       C  0.41564958  0.85886847  0.33362146    -0.09100
C1060       C  0.42800545  0.85677785  0.30267251     0.29800
F1061       F  0.41500820  0.85585135  0.27236453    -0.19600
H1062       H  0.46368502  0.85497405  0.27867857     0.18200
H1063       H  0.42074828  0.86232079  0.38858067     0.18200
F1064       F  0.46963525  0.86185785  0.39487169    -0.19600
C1065       C  0.24900784  0.77308474  0.01006308    -0.21000
C1066       C  0.24845892  0.74751842  0.49900594    -0.09100
C1067       C  0.27471571  0.74895587  0.48863729     0.29800
C1068       C  0.30103442  0.77574365  0.48906775    -0.21000
C1069       C  0.30152911  0.80134223  0.49995507    -0.09100
C1070       C  0.27534299  0.79980411  0.01074226     0.29800
F1071       F  0.27537929  0.82393812  0.02285982    -0.19600
H1072       H  0.22905184  0.77222616  0.01874955     0.18200
H1073       H  0.32102049  0.77659824  0.48052428     0.18200
F1074       F  0.27481615  0.72464649  0.47741934    -0.19600
C1075       C  0.38326920  0.94066229  0.17598529    -0.21000
C1076       C  0.35812233  0.91451115  0.16593426    -0.09100
C1077       C  0.33279817  0.91505439  0.15570352     0.29800
C1078       C  0.33270458  0.94143058  0.15575059    -0.21000
C1079       C  0.35785898  0.96759819  0.16579631    -0.09100
C1080       C  0.38318421  0.96703693  0.17602182     0.29800
F1081       F  0.40755944  0.99184107  0.18685486    -0.19600
H1082       H  0.40284766  0.94054697  0.18430328     0.18200
H1083       H  0.31312048  0.94153447  0.14743237     0.18200
F1084       F  0.30844887  0.89022996  0.14485295    -0.19600
C1085       C  0.08171487  0.66591953  0.17544018    -0.21000
C1086       C  0.08151729  0.69146951  0.16594240    -0.09100
C1087       C  0.10797872  0.71661519  0.15651454     0.29800
C1088       C  0.13426665  0.71625820  0.15715616    -0.21000
C1089       C  0.13450520  0.69079002  0.16689158    -0.09100
C1090       C  0.10797754  0.66550197  0.17588403     0.29800
F1091       F  0.10752956  0.64065153  0.18590678    -0.19600
H1092       H  0.06158586  0.64643565  0.18297283     0.18200
H1093       H  0.15439068  0.73571821  0.14955372     0.18200
F1094       F  0.10831087  0.74124686  0.14581879    -0.19600
C1095       C  0.05030046  0.80119181  0.51152119    -0.21000
C1096       C  0.02518324  0.80164098  0.00038383    -0.09100
C1097       C  0.50039131  0.77551958  0.98936929     0.29800
C1098       C  0.00068321  0.74927055  0.98985539    -0.21000
C1099       C  0.02574820  0.74878039  0.00105731    -0.09100
C1100       C  0.05063263  0.77493403  0.51188904     0.29800
F1101       F  0.07495013  0.77496172  0.52352761    -0.19600
H1102       H  0.06946644  0.82110068  0.52029649     0.18200
H1103       H  0.48153345  0.72938817  0.98098664     0.18200
F1104       F  0.47622391  0.77554212  0.97727924    -0.19600
C1105       C  0.27573776  0.99999645  0.00818360    -0.21000
C1106       C  0.30168307  0.52554461  0.49862563    -0.09100
C1107       C  0.30070676  0.55090730  0.49003451     0.29800
C1108       C  0.27410357  0.55058471  0.49114310    -0.21000
C1109       C  0.24816047  0.52502619  0.50069998    -0.09100
C1110       C  0.24914661  0.99967151  0.00928830     0.29800
F1111       F  0.22456750  0.97483280  0.01952938    -0.19600
H1112       H  0.27617504  0.98038545  0.01536977     0.18200
H1113       H  0.27365312  0.57019194  0.48397811     0.18200
F1114       F  0.32529621  0.57573867  0.47980143    -0.19600
C1115       C  0.46773453  0.60939931  0.32340354    -0.21000
C1116       C  0.46800173  0.63498089  0.33390554    -0.09100
C1117       C  0.44154220  0.63331459  0.34383624     0.29800
C1118       C  0.41528495  0.60642985  0.34308344    -0.21000
C1119       C  0.41503798  0.58086076  0.33257485    -0.09100
C1120       C  0.44148356  0.58252910  0.32263941     0.29800
F1121       F  0.44180596  0.55836439  0.31131891    -0.19600
H1122       H  0.48785812  0.61034628  0.31525674     0.18200
H1123       H  0.39513898  0.60546506  0.35117047     0.18200
F1124       F  0.44119093  0.65749128  0.35505554    -0.19600
C1125       C  0.08190699  0.94022352  0.17765899    -0.21000
C1126       C  0.08158524  0.91492402  0.16588475    -0.09100
C1127       C  0.10779859  0.91691506  0.15438651     0.29800
C1128       C  0.13400135  0.94380533  0.15520756    -0.21000
C1129       C  0.13437752  0.96905788  0.16722004    -0.09100
C1130       C  0.10809731  0.96715360  0.17834186     0.29800
F1131       F  0.10789526  0.99111940  0.19064609    -0.19600
H1132       H  0.06188593  0.93899574  0.18676220     0.18200
H1133       H  0.15400715  0.94503999  0.14602504     0.18200
F1134       F  0.10790830  0.89305851  0.14155692    -0.19600
C1135       C  0.05375632  0.88662557  0.66560825     0.03400
C1136       C  0.05193921  0.86200120  0.68117958    -0.12700
C1137       C  0.02520697  0.83519334  0.68235229     0.00900
C1138       C  0.50011377  0.83315280  0.66621156    -0.11300
C1139       C  0.50202823  0.85798439  0.64978023     0.03400
C1140       C  0.02889202  0.88458931  0.65036132    -0.10700
H1141       H  0.07131940  0.86429944  0.69377995     0.09000
H1142       H  0.47943300  0.81258771  0.66645155     0.06500
H1143       H  0.03100767  0.90382308  0.63774915     0.06400
C1144       C  0.16232553  0.99722320  0.66787119     0.03400
C1145       C  0.18709235  0.49896074  0.68306060    -0.12700
C1146       C  0.21418026  0.52535389  0.68341741     0.00900
C1147       C  0.21636172  0.55029854  0.66697501    -0.11300
C1148       C  0.19134627  0.54851900  0.65096012     0.03400
C1149       C  0.16443158  0.52193455  0.65230911    -0.10700
H1150       H  0.18477888  0.97963417  0.69564093     0.09000
H1151       H  0.23719710  0.57070289  0.66652149     0.06500
H1152       H  0.14512586  0.51981130  0.63970817     0.06400
C1153       C  0.49598431  0.66323546  0.83415904     0.03400
C1154       C  0.99800992  0.68782969  0.81825836    -0.12700
C1155       C  0.02482564  0.71453498  0.81689500     0.00900
C1156       C  0.04989523  0.71651045  0.83305163    -0.11300
C1157       C  0.04785706  0.69171244  0.84973960     0.03400
C1158       C  0.02083728  0.66522642  0.84947912    -0.10700
H1159       H  0.47871314  0.68557873  0.80551061     0.09000
H1160       H  0.07065359  0.73699598  0.83261797     0.06500
H1161       H  0.01862370  0.64606131  0.86235502     0.06400
C1162       C  0.38709134  0.55259953  0.83215078     0.03400
C1163       C  0.38498280  0.52806461  0.84828065    -0.12700
C1164       C  0.35823463  0.00127613  0.84929980     0.00900
C1165       C  0.33330443  0.99918817  0.83261367    -0.11300
C1166       C  0.33543914  0.52396504  0.81572719     0.03400
C1167       C  0.36240984  0.55050258  0.81626909    -0.10700
H1168       H  0.40417272  0.53042295  0.86141698     0.09000
H1169       H  0.31257667  0.97866345  0.83285503     0.06500
H1170       H  0.36471929  0.56965779  0.80326301     0.06400
O1171       O  0.31506351  0.54960627  0.71263952    -0.72700
O1172       O  0.25977810  0.54800575  0.78477447    -0.73600
O1173       O  0.31395773  0.54714921  0.78431651    -0.62300
O1174       O  0.26051193  0.55054116  0.71316669    -0.70700
O1175       O  0.23569376  0.50191567  0.71425232    -0.70200
O1176       O  0.28930728  0.99853199  0.78536281    -0.61500
O1177       O  0.23464451  0.99938324  0.78591769    -0.74000
O1178       O  0.28987502  0.50098042  0.71362306    -0.72800
Cu1179     Cu  0.28820078  0.55048949  0.74886597     1.04600
Cu1180     Cu  0.26150919  0.99852642  0.74962512     1.04300
C1181       C  0.31181652  0.52501820  0.70295883     0.93500
C1182       C  0.23787074  0.52397868  0.79552855     0.92700
C1183       C  0.31128701  0.52294127  0.79486580     0.84800
C1184       C  0.23841955  0.52617624  0.70380998     0.91100
O1185       O  0.04815585  0.75907818  0.71436860    -0.72700
O1186       O  0.05060886  0.81525037  0.78584587    -0.73600
O1187       O  0.05054129  0.76021069  0.78608111    -0.62300
O1188       O  0.04825350  0.81367839  0.71412121    -0.70700
O1189       O  0.49951936  0.78943775  0.71296284    -0.70200
O1190       O  0.00181154  0.73599165  0.78492932    -0.61500
O1191       O  0.00186918  0.79060742  0.78467227    -0.74000
O1192       O  0.99941650  0.73438625  0.71320017    -0.69200
Cu1193     Cu  0.05105781  0.78788957  0.74996117     1.04600
Cu1194     Cu  0.49897908  0.76176103  0.74907867     1.04300
C1195       C  0.02394918  0.73724894  0.70374928     0.93500
C1196       C  0.02608981  0.81242560  0.79529382     0.92700
C1197       C  0.02598212  0.73850012  0.79566163     0.84800
C1198       C  0.02408006  0.81117368  0.70342243     0.91100
C1199       C  0.32968278  0.52561957  0.49831333     0.03400
C1200       C  0.35437541  0.54813217  0.51443456    -0.12700
C1201       C  0.38103010  0.54818393  0.51543994     0.00900
C1202       C  0.38279950  0.52513817  0.49925155    -0.11300
C1203       C  0.35781509  0.50224810  0.98270264     0.03400
C1204       C  0.33141648  0.50274981  0.98279851    -0.10700
H1205       H  0.35226310  0.56505380  0.52756288     0.09000
H1206       H  0.40327451  0.52495293  0.49964437     0.06500
H1207       H  0.31215049  0.98573310  0.96975630     0.06400
C1208       C  0.22012351  0.52487286  0.00108239     0.03400
C1209       C  0.19543926  0.50225786  0.98509670    -0.12700
C1210       C  0.16862676  0.50188673  0.98445729     0.00900
C1211       C  0.16669808  0.52477290  0.00087417    -0.11300
C1212       C  0.19169736  0.54778883  0.51730319     0.03400
C1213       C  0.21825980  0.54759146  0.51678385    -0.10700
H1214       H  0.19766715  0.98546501  0.97181642     0.09000
H1215       H  0.14609940  0.52471872  0.00078066     0.06500
H1216       H  0.23754803  0.56468289  0.52971250     0.06400
C1217       C  0.02571016  0.72087537  0.50103299     0.03400
C1218       C  0.04816770  0.71885451  0.98479599    -0.12700
C1219       C  0.04794819  0.69216187  0.98345962     0.00900
C1220       C  0.02484990  0.66722517  0.49977094    -0.11300
C1221       C  0.00216271  0.66925129  0.51667429     0.03400
C1222       C  0.00277460  0.69615029  0.51654620    -0.10700
H1223       H  0.06527800  0.73809793  0.97192341     0.09000
H1224       H  0.02452569  0.64654213  0.49930439     0.06500
H1225       H  0.48585742  0.69835729  0.52963438     0.06400
C1226       C  0.02502818  0.82944694  0.00022938     0.03400
C1227       C  0.00222288  0.83123250  0.51590700    -0.12700
C1228       C  0.00185415  0.85763923  0.51634443     0.00900
C1229       C  0.02470311  0.88251351  0.99965797    -0.11300
C1230       C  0.04777056  0.88072306  0.98338295     0.03400
C1231       C  0.04776514  0.85413451  0.98447712    -0.10700
H1232       H  0.48526136  0.81203224  0.52899697     0.09000
H1233       H  0.02456855  0.90296901  0.99940757     0.06500
H1234       H  0.06494188  0.85207596  0.97182857     0.06400
C1235       C  0.05358718  0.69160139  0.66591804     0.03400
C1236       C  0.02878187  0.66879822  0.65028851    -0.12700
C1237       C  0.50192475  0.66837366  0.64984341     0.00900
C1238       C  0.50000579  0.69123083  0.66641309    -0.11300
C1239       C  0.02502160  0.71426584  0.68283032     0.03400
C1240       C  0.05164876  0.71417859  0.68195217    -0.10700
H1241       H  0.03091676  0.65183689  0.63727023     0.09000
H1242       H  0.47936798  0.69109491  0.66652899     0.06500
H1243       H  0.07090580  0.73118131  0.69501558     0.06400
C1244       C  0.16252032  0.69083712  0.66728118     0.03400
C1245       C  0.16468954  0.66851538  0.65102544    -0.12700
C1246       C  0.19138978  0.66862092  0.65016268     0.00900
C1247       C  0.21628936  0.69158119  0.66680708    -0.11300
C1248       C  0.21419337  0.71424773  0.68359302     0.03400
C1249       C  0.18721094  0.71361856  0.68320534    -0.10700
H1250       H  0.14555290  0.65159575  0.63770350     0.09000
H1251       H  0.23699192  0.69184806  0.66662127     0.06500
H1252       H  0.18493628  0.73044876  0.69634664     0.06400
O1253       O  0.16587212  0.62268182  0.54666125    -0.72700
O1254       O  0.16849891  0.56987420  0.61878878    -0.73600
O1255       O  0.16843686  0.62410259  0.61827423    -0.62300
O1256       O  0.16607150  0.56797535  0.54722106    -0.70700
O1257       O  0.21482653  0.59271997  0.54843630    -0.70200
O1258       O  0.21718287  0.64890218  0.61954061    -0.61500
O1259       O  0.21723709  0.59408678  0.62006269    -0.74000
O1260       O  0.21461368  0.64698876  0.54784165    -0.72800
Cu1261     Cu  0.16555602  0.59532306  0.58286520     1.04600
Cu1262     Cu  0.21765966  0.62154023  0.58380966     1.04300
C1263       C  0.19040778  0.64436166  0.53705699     0.93500
C1264       C  0.19264356  0.57244234  0.62965265     0.92700
C1265       C  0.19260532  0.64589328  0.62901056     0.84800
C1266       C  0.19062662  0.57085309  0.53789670     0.91100
C1267       C  0.35840743  0.88673862  0.66638576     0.03400
C1268       C  0.33598186  0.86221001  0.68275530    -0.12700
C1269       C  0.33577659  0.83552205  0.68358335     0.00900
C1270       C  0.35857835  0.83356199  0.66684733    -0.11300
C1271       C  0.38136950  0.85838026  0.64998697     0.03400
C1272       C  0.38111263  0.88486374  0.65054734    -0.10700
H1273       H  0.31910416  0.86441714  0.69592455     0.09000
H1274       H  0.35857249  0.81303728  0.66691319     0.06500
H1275       H  0.39803097  0.90402859  0.63735242     0.06400
C1276       C  0.35758657  0.99539923  0.66539324     0.03400
C1277       C  0.33472713  0.99720310  0.68098318    -0.12700
C1278       C  0.33459930  0.52375314  0.68181082     0.00900
C1279       C  0.35762024  0.54868004  0.66538475    -0.11300
C1280       C  0.38052831  0.54680743  0.64882253     0.03400
C1281       C  0.38024198  0.52007356  0.64943751    -0.10700
H1282       H  0.31762722  0.97795935  0.69387639     0.09000
H1283       H  0.35772974  0.56925799  0.66553616     0.06500
H1284       H  0.39723702  0.51797022  0.63641323     0.06400
O1285       O  0.48188490  0.88326360  0.54671110    -0.72700
O1286       O  0.42601030  0.88125842  0.61813447    -0.73600
O1287       O  0.48037795  0.88093710  0.61832773    -0.62300
O1288       O  0.42711544  0.88357313  0.54652139    -0.70700
O1289       O  0.40264200  0.83494629  0.54771020    -0.70200
O1290       O  0.45600512  0.83231127  0.61948082    -0.61500
O1291       O  0.40116708  0.83263238  0.61940079    -0.74000
O1292       O  0.45702405  0.83462959  0.54784261    -0.72800
Cu1293     Cu  0.45469756  0.88392227  0.58256515     1.04600
Cu1294     Cu  0.42834397  0.83194689  0.58345945     1.04300
C1295       C  0.47888746  0.85874297  0.53721856     0.93500
C1296       C  0.40418973  0.85717492  0.62888004     0.92700
C1297       C  0.47783317  0.85681297  0.62897963     0.84800
C1298       C  0.40526021  0.85909733  0.53703270     0.91100
O1299       O  0.45729981  0.64727565  0.54808448    -0.72700
O1300       O  0.40091033  0.59279078  0.61894235    -0.73600
O1301       O  0.45597867  0.64802851  0.61963338    -0.62300
O1302       O  0.40273123  0.59260005  0.54741054    -0.70700
O1303       O  0.42676217  0.56815361  0.54599205    -0.70200
O1304       O  0.48015191  0.62372777  0.61813869    -0.61500
O1305       O  0.42548260  0.56889290  0.61752406    -0.74000
O1306       O  0.48178817  0.62329189  0.54654361    -0.72800
Cu1307     Cu  0.42838532  0.62099222  0.58339388     1.04600
Cu1308     Cu  0.45439361  0.59518632  0.58218956     1.04300
C1309       C  0.47904647  0.64500312  0.53734553     0.93500
C1310       C  0.40365993  0.57108616  0.62815691     0.92700
C1311       C  0.47772433  0.64532581  0.62897672     0.84800
C1312       C  0.40512327  0.57100083  0.53655112     0.91100
C1313       C  0.22040403  0.71947922  0.99881246     0.03400
C1314       C  0.21837746  0.69480635  0.51435331    -0.12700
C1315       C  0.19151019  0.66824527  0.51586707     0.00900
C1316       C  0.16638265  0.66644563  0.00012278    -0.11300
C1317       C  0.16845527  0.69136378  0.98373233     0.03400
C1318       C  0.19552383  0.71776992  0.98396684    -0.10700
H1319       H  0.23773789  0.69692223  0.52678838     0.09000
H1320       H  0.14556918  0.64601771  0.00064382     0.06500
H1321       H  0.19776678  0.73705251  0.97136131     0.06400
C1322       C  0.32947384  0.82950167  0.00016276     0.03400
C1323       C  0.35433907  0.83138589  0.51522164    -0.12700
C1324       C  0.38113421  0.85803761  0.51622658     0.00900
C1325       C  0.38299359  0.88306028  0.00037544    -0.11300
C1326       C  0.35792007  0.88113290  0.98435003     0.03400
C1327       C  0.33127921  0.85427116  0.98505642    -0.10700
H1328       H  0.35225217  0.81204408  0.52749805     0.09000
H1329       H  0.40362098  0.90368822  0.00048464     0.06500
H1330       H  0.31193753  0.85207291  0.97247187     0.06400
C1331       C  0.49664963  0.85820295  0.83335076     0.03400
C1332       C  0.02141439  0.88076695  0.84932852    -0.12700
C1333       C  0.04823165  0.88106738  0.84983142     0.00900
C1334       C  0.05006817  0.85823058  0.83305386    -0.11300
C1335       C  0.02508066  0.83545106  0.81622978     0.03400
C1336       C  0.49854846  0.83576480  0.81691381    -0.10700
H1337       H  0.01942608  0.89794776  0.86196014     0.09000
H1338       H  0.07062795  0.85820564  0.83305202     0.06500
H1339       H  0.47913734  0.81865767  0.80416773     0.06400
C1340       C  0.38750908  0.85858086  0.83392115     0.03400
C1341       C  0.38530581  0.88075873  0.85056741    -0.12700
C1342       C  0.35863957  0.88080098  0.85120510     0.00900
C1343       C  0.33380502  0.85798133  0.83428947    -0.11300
C1344       C  0.33591247  0.83539738  0.81731248     0.03400
C1345       C  0.36287305  0.83596927  0.81773180    -0.10700
H1346       H  0.40460473  0.89792049  0.86342531     0.09000
H1347       H  0.31314770  0.85781228  0.83431555     0.06500
H1348       H  0.36504814  0.81897467  0.80489458     0.06400
O1349       O  0.38339409  0.98183327  0.95327848    -0.72700
O1350       O  0.38147840  0.92561896  0.88263557    -0.73600
O1351       O  0.38118044  0.97998977  0.88169203    -0.62300
O1352       O  0.38356148  0.92705405  0.95418800    -0.70700
O1353       O  0.33482352  0.90267989  0.95280840    -0.70200
O1354       O  0.33245448  0.95565160  0.88025749    -0.61500
O1355       O  0.33273902  0.90078990  0.88115771    -0.74000
O1356       O  0.33463873  0.95710960  0.95191536    -0.72800
Cu1357     Cu  0.38406408  0.95447130  0.91783308     1.04600
Cu1358     Cu  0.33197455  0.92820370  0.91668576     1.04300
C1359       C  0.35883043  0.97902033  0.96241633     0.93500
C1360       C  0.35736269  0.90371591  0.87198203     0.92700
C1361       C  0.35702362  0.97737641  0.87072838     0.84800
C1362       C  0.35900761  0.90525598  0.96359062     0.91100
C1363       C  0.19263480  0.55399120  0.83372112     0.03400
C1364       C  0.17031712  0.52952802  0.85040767    -0.12700
C1365       C  0.16994392  0.00273387  0.85108503     0.00900
C1366       C  0.19258987  0.00065564  0.83410564    -0.11300
C1367       C  0.21519473  0.52532295  0.81682351     0.03400
C1368       C  0.21488660  0.55178094  0.81713788    -0.10700
H1369       H  0.15356383  0.53180342  0.86379485     0.09000
H1370       H  0.19253903  0.98010802  0.83418599     0.06500
H1371       H  0.23143581  0.57065096  0.80319803     0.06400
C1372       C  0.19068976  0.66226516  0.83208311     0.03400
C1373       C  0.16849519  0.66441327  0.84891763    -0.12700
C1374       C  0.16852478  0.69104270  0.85005117     0.00900
C1375       C  0.19140084  0.71592645  0.83339487    -0.11300
C1376       C  0.21395685  0.71388807  0.81619246     0.03400
C1377       C  0.21323842  0.68693594  0.81598296    -0.10700
H1378       H  0.15173077  0.64535487  0.86239035     0.09000
H1379       H  0.19169751  0.73659266  0.83390059     0.06500
H1380       H  0.22992088  0.68471560  0.80234910     0.06400
O1381       O  0.09263464  0.71500837  0.95169501    -0.72700
O1382       O  0.14879959  0.71684294  0.88070089    -0.73600
O1383       O  0.09395242  0.71729613  0.88003658    -0.62300
O1384       O  0.14695998  0.71455301  0.95237738    -0.70700
O1385       O  0.12238330  0.66592551  0.95355792    -0.70200
O1386       O  0.06947252  0.66867493  0.88119651    -0.61500
O1387       O  0.12386500  0.66822022  0.88193266    -0.74000
O1388       O  0.06764995  0.66638107  0.95283938    -0.72800
Cu1389     Cu  0.12144874  0.71760358  0.91634607     1.04600
Cu1390     Cu  0.09498725  0.66563524  0.91723619     1.04300
C1391       C  0.07072413  0.69093752  0.96232337     0.93500
C1392       C  0.14576778  0.69228376  0.87127142     0.92700
C1393       C  0.07207834  0.69282221  0.87051675     0.84800
C1394       C  0.14427428  0.69037511  0.96306907     0.91100
O1395       O  0.06791898  0.92640208  0.95287853    -0.72700
O1396       O  0.12492506  0.98076552  0.88230456    -0.73600
O1397       O  0.07014751  0.92585886  0.88129467    -0.62300
O1398       O  0.12289707  0.98159481  0.95380772    -0.70700
O1399       O  0.14710084  0.95731563  0.95275816    -0.70200
O1400       O  0.09412923  0.90136836  0.88045054    -0.61500
O1401       O  0.14939501  0.95676570  0.88120873    -0.74000
O1402       O  0.09262640  0.90263125  0.95204477    -0.72800
Cu1403     Cu  0.09562668  0.95447560  0.91739655     1.04600
Cu1404     Cu  0.12165692  0.92869406  0.91676117     1.04300
C1405       C  0.07077187  0.90484652  0.96247627     0.93500
C1406       C  0.14677515  0.97852356  0.87186916     0.92700
C1407       C  0.07247889  0.90412580  0.87076352     0.84800
C1408       C  0.14457025  0.97888852  0.96344503     0.91100
O1409       O  0.26020499  0.73472106  0.71378072    -0.72700
O1410       O  0.31402578  0.79068815  0.78562661    -0.73600
O1411       O  0.25906230  0.73599376  0.78527348    -0.62300
O1412       O  0.31552759  0.78978851  0.71401922    -0.70700
O1413       O  0.29103985  0.81377264  0.71521666    -0.70200
O1414       O  0.23457960  0.75998802  0.78647921    -0.61500
O1415       O  0.28998680  0.81511932  0.78685203    -0.74000
O1416       O  0.23612542  0.75911887  0.71496166    -0.72800
Cu1417     Cu  0.28804328  0.76197421  0.74982915     1.04600
Cu1418     Cu  0.26211371  0.78785292  0.75073791     1.04300
C1419       C  0.23845131  0.73740161  0.70435905     0.93500
C1420       C  0.31170084  0.81237889  0.79632451     0.92700
C1421       C  0.23722541  0.73823597  0.79574334     0.84800
C1422       C  0.31277930  0.81143685  0.70457377     0.91100
C1423       C  0.16625374  0.58158789  0.82472676    -0.21000
C1424       C  0.19231207  0.58180963  0.83310979    -0.09100
C1425       C  0.21777699  0.60859930  0.84093079     0.29800
C1426       C  0.21704943  0.63464161  0.84042552    -0.21000
C1427       C  0.19097912  0.63442612  0.83216503    -0.09100
C1428       C  0.16553367  0.60765604  0.82419490     0.29800
F1429       F  0.14019872  0.60675721  0.81509679    -0.19600
H1430       H  0.14655612  0.56124951  0.81817452     0.18200
H1431       H  0.23674854  0.65495686  0.84704431     0.18200
F1432       F  0.24313078  0.60953666  0.85002136    -0.19600
C1433       C  0.45428932  0.85635979  0.80277533    -0.21000
C1434       C  0.46869743  0.85827585  0.83364141    -0.09100
C1435       C  0.45647042  0.86060822  0.86457786     0.29800
C1436       C  0.43013235  0.86092468  0.86448224    -0.21000
C1437       C  0.41564961  0.85886856  0.83362136    -0.09100
C1438       C  0.42800546  0.85677792  0.80267244     0.29800
F1439       F  0.41500822  0.85585143  0.77236444    -0.19600
H1440       H  0.46368493  0.85497402  0.77867868     0.18200
H1441       H  0.42074859  0.86232083  0.88857986     0.18200
F1442       F  0.46963517  0.86185778  0.89487163    -0.19600
C1443       C  0.24900775  0.77308471  0.51006320    -0.21000
C1444       C  0.24845895  0.74751846  0.99900598    -0.09100
C1445       C  0.27471582  0.74895591  0.98863748     0.29800
C1446       C  0.30103444  0.77574367  0.98906799    -0.21000
C1447       C  0.30152914  0.80134226  0.99995519    -0.09100
C1448       C  0.27534301  0.79980409  0.51074228     0.29800
F1449       F  0.27537934  0.82393808  0.52285998    -0.19600
H1450       H  0.22905221  0.77222613  0.51874961     0.18200
H1451       H  0.32102084  0.77659828  0.98052446     0.18200
F1452       F  0.27481630  0.72464651  0.97741969    -0.19600
C1453       C  0.38326946  0.94066235  0.67598549    -0.21000
C1454       C  0.35812236  0.91451121  0.66593433    -0.09100
C1455       C  0.33279829  0.91505445  0.65570354     0.29800
C1456       C  0.33270441  0.94143066  0.65575052    -0.21000
C1457       C  0.35785909  0.96759826  0.66579643    -0.09100
C1458       C  0.38318424  0.96703701  0.67602192     0.29800
F1459       F  0.40755949  0.99184114  0.68685499    -0.19600
H1460       H  0.40284684  0.94054702  0.68430305     0.18200
H1461       H  0.31312160  0.94153455  0.64743280     0.18200
F1462       F  0.30844900  0.89023006  0.64485286    -0.19600
C1463       C  0.08171476  0.66591948  0.67544024    -0.21000
C1464       C  0.08151729  0.69146957  0.66594229    -0.09100
C1465       C  0.10797870  0.71661523  0.65651437     0.29800
C1466       C  0.13426660  0.71625822  0.65715611    -0.21000
C1467       C  0.13450523  0.69079013  0.66689158    -0.09100
C1468       C  0.10797760  0.66550210  0.67588405     0.29800
F1469       F  0.10752962  0.64065168  0.68590688    -0.19600
H1470       H  0.06158649  0.64643633  0.68297269     0.18200
H1471       H  0.15439092  0.73571853  0.64955355     0.18200
F1472       F  0.10831080  0.74124682  0.64581847    -0.19600
C1473       C  0.05030036  0.80119174  0.01152103    -0.21000
C1474       C  0.02518334  0.80164105  0.50038391    -0.09100
C1475       C  0.50039140  0.77551967  0.48936925     0.29800
C1476       C  0.00068332  0.74927063  0.48985535    -0.21000
C1477       C  0.02574830  0.74878045  0.50105738    -0.09100
C1478       C  0.05063258  0.77493401  0.01188888     0.29800
F1479       F  0.07495013  0.77496172  0.02352734    -0.19600
H1480       H  0.06946646  0.82110076  0.02029632     0.18200
H1481       H  0.48153351  0.72938820  0.48098646     0.18200
F1482       F  0.47622403  0.77554223  0.47727914    -0.19600
C1483       C  0.27573769  0.99999622  0.50818356    -0.21000
C1484       C  0.30168314  0.52554470  0.99862558    -0.09100
C1485       C  0.30070680  0.55090736  0.99003448     0.29800
C1486       C  0.27410361  0.55058460  0.99114318    -0.21000
C1487       C  0.24816052  0.52502624  0.00069998    -0.09100
C1488       C  0.24914654  0.99967154  0.50928827     0.29800
F1489       F  0.22456743  0.97483284  0.51952944    -0.19600
H1490       H  0.27617492  0.98038614  0.51536932     0.18200
H1491       H  0.27365314  0.57019258  0.98397793     0.18200
F1492       F  0.32529624  0.57573871  0.97980136    -0.19600
C1493       C  0.46773441  0.60939937  0.82340347    -0.21000
C1494       C  0.46800170  0.63498091  0.83390565    -0.09100
C1495       C  0.44154219  0.63331460  0.84383651     0.29800
C1496       C  0.41528499  0.60642987  0.84308371    -0.21000
C1497       C  0.41503794  0.58086081  0.83257496    -0.09100
C1498       C  0.44148351  0.58252918  0.82263933     0.29800
F1499       F  0.44180588  0.55836448  0.81131873    -0.19600
H1500       H  0.48785826  0.61034640  0.81525640     0.18200
H1501       H  0.39513879  0.60546504  0.85117096     0.18200
F1502       F  0.44119100  0.65749131  0.85505590    -0.19600
C1503       C  0.08190695  0.94022349  0.67765895    -0.21000
C1504       C  0.08158525  0.91492397  0.66588475    -0.09100
C1505       C  0.10779859  0.91691504  0.65438661     0.29800
C1506       C  0.13400154  0.94380534  0.65520758    -0.21000
C1507       C  0.13437748  0.96905788  0.66722012    -0.09100
C1508       C  0.10809727  0.96715358  0.67834183     0.29800
F1509       F  0.10789515  0.99111938  0.69064601    -0.19600
H1510       H  0.06188591  0.93899569  0.68676205     0.18200
H1511       H  0.15400649  0.94503997  0.64602548     0.18200
F1512       F  0.10790837  0.89305850  0.64155703    -0.19600
C1513       C  0.55375630  0.38662556  0.16560830     0.03400
C1514       C  0.55193924  0.36200121  0.18117956    -0.12700
C1515       C  0.52520698  0.33519331  0.18235229     0.00900
C1516       C  0.00011397  0.33315303  0.16621158    -0.11300
C1517       C  0.00202815  0.35798435  0.14978030     0.03400
C1518       C  0.52889201  0.38458942  0.15036135    -0.10700
H1519       H  0.57131942  0.36429944  0.19377988     0.09000
H1520       H  0.97943204  0.31258678  0.16645158     0.06500
H1521       H  0.53100758  0.40382269  0.13774954     0.06400
C1522       C  0.66232558  0.49722318  0.16787109     0.03400
C1523       C  0.68709240  0.99896071  0.18306052    -0.12700
C1524       C  0.71418027  0.02535385  0.18341735     0.00900
C1525       C  0.71636191  0.05029866  0.16697491    -0.11300
C1526       C  0.69134628  0.04851896  0.15096003     0.03400
C1527       C  0.66443160  0.02193455  0.15230906    -0.10700
H1528       H  0.68477885  0.47963355  0.19564127     0.09000
H1529       H  0.73719649  0.07070223  0.16652140     0.06500
H1530       H  0.64512594  0.01981131  0.13970822     0.06400
C1531       C  0.99598434  0.16323539  0.33415897     0.03400
C1532       C  0.49800996  0.18782966  0.31825826    -0.12700
C1533       C  0.52482569  0.21453499  0.31689502     0.00900
C1534       C  0.54989524  0.21651047  0.33305171    -0.11300
C1535       C  0.54785708  0.19171244  0.34973964     0.03400
C1536       C  0.52083731  0.16522649  0.34947904    -0.10700
H1537       H  0.97871323  0.18557870  0.30551055     0.09000
H1538       H  0.57065361  0.23699605  0.33261814     0.06500
H1539       H  0.51862369  0.14606096  0.36235524     0.06400
C1540       C  0.88709133  0.05259944  0.33215070     0.03400
C1541       C  0.88498285  0.02806458  0.34828064    -0.12700
C1542       C  0.85823467  0.50127615  0.34929976     0.00900
C1543       C  0.83330428  0.49918802  0.33261367    -0.11300
C1544       C  0.83543910  0.02396492  0.31572718     0.03400
C1545       C  0.86240986  0.05050263  0.31626891    -0.10700
H1546       H  0.90417250  0.03042288  0.36141682     0.09000
H1547       H  0.81257738  0.47866418  0.33285506     0.06500
H1548       H  0.86471923  0.06965712  0.30326325     0.06400
O1549       O  0.81506352  0.04960627  0.21263951    -0.72700
O1550       O  0.75977807  0.04800576  0.28477444    -0.73600
O1551       O  0.81395771  0.04714915  0.28431650    -0.62300
O1552       O  0.76051197  0.05054117  0.21316663    -0.70700
O1553       O  0.73569376  0.00191568  0.21425237    -0.70200
O1554       O  0.78930731  0.49853201  0.28536284    -0.61500
O1555       O  0.73464458  0.49938328  0.28591777    -0.74000
O1556       O  0.78987503  0.00098043  0.21362307    -0.72800
Cu1557     Cu  0.78820078  0.05048947  0.24886596     1.04600
Cu1558     Cu  0.76150921  0.49852644  0.24962517     1.04300
C1559       C  0.81181653  0.02501818  0.20295884     0.93500
C1560       C  0.73787072  0.02397871  0.29552853     0.92700
C1561       C  0.81128700  0.02294123  0.29486579     0.84800
C1562       C  0.73841957  0.02617624  0.20380996     0.91100
O1563       O  0.54815594  0.25907826  0.21436862    -0.72700
O1564       O  0.55060894  0.31525044  0.28584587    -0.73600
O1565       O  0.55054137  0.26021071  0.28608112    -0.62300
O1566       O  0.54825357  0.31367842  0.21412122    -0.70700
O1567       O  0.99951939  0.28943780  0.21296291    -0.70200
O1568       O  0.50181163  0.23599172  0.28492942    -0.61500
O1569       O  0.50186926  0.29060745  0.28467237    -0.74000
O1570       O  0.49941659  0.23438631  0.21320029    -0.69200
Cu1571     Cu  0.55105787  0.28788960  0.24996119     1.04600
Cu1572     Cu  0.99897910  0.26176106  0.24907875     1.04300
C1573       C  0.52394926  0.23724900  0.20374935     0.93500
C1574       C  0.52608990  0.31242566  0.29529386     0.92700
C1575       C  0.52598220  0.23850016  0.29566169     0.84800
C1576       C  0.52408011  0.31117370  0.20342246     0.91100
C1577       C  0.82968286  0.02561964  0.99831328     0.03400
C1578       C  0.85437548  0.04813226  0.01443453    -0.12700
C1579       C  0.88103017  0.04818397  0.01543992     0.00900
C1580       C  0.88279949  0.02513820  0.99925156    -0.11300
C1581       C  0.85781496  0.00224805  0.48270266     0.03400
C1582       C  0.83141664  0.00274994  0.48279870    -0.10700
H1583       H  0.85226318  0.06505377  0.02756275     0.09000
H1584       H  0.90327478  0.02495293  0.99964440     0.06500
H1585       H  0.81215048  0.48573302  0.46975639     0.06400
C1586       C  0.72012347  0.02487290  0.50108246     0.03400
C1587       C  0.69543923  0.00225776  0.48509667    -0.12700
C1588       C  0.66862674  0.00188680  0.48445733     0.00900
C1589       C  0.66669804  0.02477294  0.50087419    -0.11300
C1590       C  0.69169734  0.04778876  0.01730312     0.03400
C1591       C  0.71825996  0.04759156  0.01678390    -0.10700
H1592       H  0.69766716  0.48546521  0.47181648     0.09000
H1593       H  0.64609943  0.02471879  0.50078067     0.06500
H1594       H  0.73754742  0.06468230  0.02971203     0.06400
C1595       C  0.52571012  0.22087531  0.00103291     0.03400
C1596       C  0.54816779  0.21885457  0.48479604    -0.12700
C1597       C  0.54794823  0.19216191  0.48345962     0.00900
C1598       C  0.52484991  0.16722503  0.99977098    -0.11300
C1599       C  0.50216271  0.16925125  0.01667430     0.03400
C1600       C  0.50277450  0.19615021  0.01654620    -0.10700
H1601       H  0.56527805  0.23809794  0.47192354     0.09000
H1602       H  0.52452576  0.14654249  0.99930448     0.06500
H1603       H  0.98585710  0.19835721  0.02963444     0.06400
C1604       C  0.52502823  0.32944697  0.50022949     0.03400
C1605       C  0.50222278  0.33123242  0.01590692    -0.12700
C1606       C  0.50185417  0.35763927  0.01634436     0.00900
C1607       C  0.52470305  0.38251379  0.49965799    -0.11300
C1608       C  0.54777056  0.38072304  0.48338302     0.03400
C1609       C  0.54776518  0.35413459  0.48447727    -0.10700
H1610       H  0.98526157  0.31203249  0.02899676     0.09000
H1611       H  0.52456845  0.40296777  0.49940758     0.06500
H1612       H  0.56494202  0.35207604  0.47182871     0.06400
C1613       C  0.55358723  0.19160144  0.16591812     0.03400
C1614       C  0.52878189  0.16879823  0.15028860    -0.12700
C1615       C  0.00192479  0.16837367  0.14984352     0.00900
C1616       C  0.00000585  0.19123085  0.16641318    -0.11300
C1617       C  0.52502164  0.21426589  0.18283040     0.03400
C1618       C  0.55164871  0.21417853  0.18195216    -0.10700
H1619       H  0.53091675  0.15183695  0.13727034     0.09000
H1620       H  0.97936798  0.19109495  0.16652905     0.06500
H1621       H  0.57090627  0.23118172  0.19501593     0.06400
C1622       C  0.66252033  0.19083705  0.16728115     0.03400
C1623       C  0.66468955  0.16851536  0.15102537    -0.12700
C1624       C  0.69138982  0.16862092  0.15016260     0.00900
C1625       C  0.71628939  0.19158118  0.16680703    -0.11300
C1626       C  0.71419341  0.21424770  0.18359295     0.03400
C1627       C  0.68721095  0.21361867  0.18320540    -0.10700
H1628       H  0.64555299  0.15159580  0.13770344     0.09000
H1629       H  0.73699195  0.19184803  0.16662124     0.06500
H1630       H  0.68493637  0.23044815  0.19634614     0.06400
O1631       O  0.66587215  0.12268184  0.04666117    -0.72700
O1632       O  0.66849894  0.06987419  0.11878871    -0.73600
O1633       O  0.66843688  0.12410259  0.11827413    -0.62300
O1634       O  0.66607154  0.06797535  0.04722093    -0.70700
O1635       O  0.71482657  0.09271995  0.04843617    -0.70200
O1636       O  0.71718289  0.14890216  0.11954050    -0.61500
O1637       O  0.71723712  0.09408676  0.12006259    -0.74000
O1638       O  0.71461371  0.14698877  0.04784154    -0.72800
Cu1639     Cu  0.66555604  0.09532306  0.08286511     1.04600
Cu1640     Cu  0.71765968  0.12154022  0.08380955     1.04300
C1641       C  0.69040780  0.14436167  0.03705690     0.93500
C1642       C  0.69264359  0.07244233  0.12965256     0.92700
C1643       C  0.69260534  0.14589328  0.12901046     0.84800
C1644       C  0.69062666  0.07085308  0.03789659     0.91100
C1645       C  0.85840728  0.38673850  0.16638567     0.03400
C1646       C  0.83598178  0.36220996  0.18275526    -0.12700
C1647       C  0.83577654  0.33552198  0.18358334     0.00900
C1648       C  0.85857831  0.33356200  0.16684732    -0.11300
C1649       C  0.88136940  0.35838014  0.14998693     0.03400
C1650       C  0.88111269  0.38486385  0.15054708    -0.10700
H1651       H  0.81910418  0.36441709  0.19592450     0.09000
H1652       H  0.85857246  0.31303695  0.16691326     0.06500
H1653       H  0.89803011  0.40402767  0.13735280     0.06400
C1654       C  0.85758649  0.49539919  0.16539312     0.03400
C1655       C  0.83472691  0.49720290  0.18098317    -0.12700
C1656       C  0.83459930  0.02375315  0.18181080     0.00900
C1657       C  0.85762025  0.04867980  0.16538477    -0.11300
C1658       C  0.88052831  0.04680742  0.14882254     0.03400
C1659       C  0.88024180  0.02007351  0.14943757    -0.10700
H1660       H  0.81762768  0.47795994  0.19387581     0.09000
H1661       H  0.85772982  0.06925895  0.16553624     0.06500
H1662       H  0.89723749  0.01797009  0.13641277     0.06400
O1663       O  0.98188498  0.38326365  0.04671113    -0.72700
O1664       O  0.92601028  0.38125838  0.11813448    -0.73600
O1665       O  0.98037794  0.38093712  0.11832776    -0.62300
O1666       O  0.92711551  0.38357318  0.04652142    -0.70700
O1667       O  0.90264205  0.33494633  0.04771019    -0.70200
O1668       O  0.95600512  0.33231129  0.11948076    -0.61500
O1669       O  0.90116707  0.33263234  0.11940074    -0.74000
O1670       O  0.95702409  0.33462964  0.04784255    -0.72800
Cu1671     Cu  0.95469759  0.38392230  0.08256518     1.04600
Cu1672     Cu  0.92834399  0.33194691  0.08345940     1.04300
C1673       C  0.97888751  0.35874301  0.03721855     0.93500
C1674       C  0.90418970  0.35717490  0.12888001     0.92700
C1675       C  0.97783315  0.35681300  0.12897964     0.84800
C1676       C  0.90526027  0.35909738  0.03703271     0.91100
O1677       O  0.95729983  0.14727563  0.04808459    -0.72700
O1678       O  0.90091040  0.09279080  0.11894251    -0.73600
O1679       O  0.95597873  0.14802854  0.11963346    -0.62300
O1680       O  0.90273123  0.09260001  0.04741067    -0.70700
O1681       O  0.92676220  0.06815360  0.04599210    -0.70200
O1682       O  0.98015192  0.12372776  0.11813882    -0.61500
O1683       O  0.92548257  0.06889283  0.11752409    -0.74000
O1684       O  0.98178819  0.12329188  0.04654370    -0.72800
Cu1685     Cu  0.92838536  0.12099222  0.08339401     1.04600
Cu1686     Cu  0.95439362  0.09518631  0.08218965     1.04300
C1687       C  0.97904648  0.14500307  0.03734560     0.93500
C1688       C  0.90365995  0.07108613  0.12815698     0.92700
C1689       C  0.97772437  0.14532583  0.12897682     0.84800
C1690       C  0.90512329  0.07100083  0.03655118     0.91100
C1691       C  0.72040399  0.21947923  0.49881245     0.03400
C1692       C  0.71837754  0.19480637  0.01435328    -0.12700
C1693       C  0.69151020  0.16824529  0.01586700     0.00900
C1694       C  0.66638284  0.16644578  0.50012280    -0.11300
C1695       C  0.66845524  0.19136375  0.48373233     0.03400
C1696       C  0.69552381  0.21776977  0.48396691    -0.10700
H1697       H  0.73773770  0.19692218  0.02678817     0.09000
H1698       H  0.64556844  0.14601696  0.50064386     0.06500
H1699       H  0.69776681  0.23705298  0.47136091     0.06400
C1700       C  0.82947380  0.32950168  0.50016266     0.03400
C1701       C  0.85433909  0.33138595  0.01522179    -0.12700
C1702       C  0.88113426  0.35803766  0.01622664     0.00900
C1703       C  0.88299360  0.38306029  0.50037539    -0.11300
C1704       C  0.85792004  0.38113291  0.48434995     0.03400
C1705       C  0.83127939  0.35427121  0.48505648    -0.10700
H1706       H  0.85225219  0.31204420  0.02749821     0.09000
H1707       H  0.90362090  0.40368812  0.50048460     0.06500
H1708       H  0.81193675  0.35207288  0.47247134     0.06400
C1709       C  0.99664968  0.35820303  0.33335070     0.03400
C1710       C  0.52141446  0.38076704  0.34932851    -0.12700
C1711       C  0.54823171  0.38106744  0.34983142     0.00900
C1712       C  0.55006825  0.35823067  0.33305386    -0.11300
C1713       C  0.52508073  0.33545112  0.31622978     0.03400
C1714       C  0.99854861  0.33576496  0.31691385    -0.10700
H1715       H  0.51942614  0.39794781  0.36196010     0.09000
H1716       H  0.57062805  0.35820574  0.33305200     0.06500
H1717       H  0.97913702  0.31865741  0.30416746     0.06400
C1718       C  0.88750908  0.35858084  0.33392120     0.03400
C1719       C  0.88530596  0.38075885  0.35056751    -0.12700
C1720       C  0.85863958  0.38080098  0.35120509     0.00900
C1721       C  0.83380505  0.35798136  0.33428948    -0.11300
C1722       C  0.83591248  0.33539739  0.31731251     0.03400
C1723       C  0.86287307  0.33596920  0.31773181    -0.10700
H1724       H  0.90460426  0.39792005  0.36342497     0.09000
H1725       H  0.81314773  0.35781232  0.33431556     0.06500
H1726       H  0.86504811  0.31897492  0.30489486     0.06400
O1727       O  0.88339408  0.48183329  0.45327842    -0.72700
O1728       O  0.88147841  0.42561898  0.38263555    -0.73600
O1729       O  0.88118042  0.47998976  0.38169200    -0.62300
O1730       O  0.88356150  0.42705409  0.45418796    -0.70700
O1731       O  0.83482354  0.40267993  0.45280832    -0.70200
O1732       O  0.83245446  0.45565163  0.38025745    -0.61500
O1733       O  0.83273903  0.40078994  0.38115763    -0.74000
O1734       O  0.83463872  0.45710961  0.45191526    -0.72800
Cu1735     Cu  0.88406408  0.45447132  0.41783304     1.04600
Cu1736     Cu  0.83197458  0.42820375  0.41668568     1.04300
C1737       C  0.85883040  0.47902033  0.46241625     0.93500
C1738       C  0.85736272  0.40371595  0.37198200     0.92700
C1739       C  0.85702359  0.47737641  0.37072834     0.84800
C1740       C  0.85900764  0.40525602  0.46359056     0.91100
C1741       C  0.69263471  0.05399117  0.33372107     0.03400
C1742       C  0.67031693  0.02952804  0.35040773    -0.12700
C1743       C  0.66994394  0.50273386  0.35108504     0.00900
C1744       C  0.69258992  0.50065584  0.33410566    -0.11300
C1745       C  0.71519465  0.02532296  0.31682346     0.03400
C1746       C  0.71488674  0.05178120  0.31713762    -0.10700
H1747       H  0.65356430  0.03180334  0.36379438     0.09000
H1748       H  0.69253909  0.48010731  0.33418600     0.06500
H1749       H  0.73143482  0.07064998  0.30319869     0.06400
C1750       C  0.69068961  0.16226506  0.33208309     0.03400
C1751       C  0.66849520  0.16441336  0.34891737    -0.12700
C1752       C  0.66852471  0.19104264  0.35005120     0.00900
C1753       C  0.69140085  0.21592635  0.33339495    -0.11300
C1754       C  0.71395684  0.21388803  0.31619253     0.03400
C1755       C  0.71323835  0.18693588  0.31598306    -0.10700
H1756       H  0.65172984  0.14535397  0.36239065     0.09000
H1757       H  0.69169757  0.23659296  0.33390076     0.06500
H1758       H  0.72992099  0.18471551  0.30234915     0.06400
O1759       O  0.59263468  0.21500843  0.45169500    -0.72700
O1760       O  0.64879962  0.21684293  0.38070097    -0.73600
O1761       O  0.59395247  0.21729615  0.38003660    -0.62300
O1762       O  0.64695996  0.21455299  0.45237743    -0.70700
O1763       O  0.62238331  0.16592548  0.45355789    -0.70200
O1764       O  0.56947252  0.16867493  0.38119654    -0.61500
O1765       O  0.62386494  0.16822020  0.38193264    -0.74000
O1766       O  0.56764999  0.16638111  0.45283939    -0.72800
Cu1767     Cu  0.62144878  0.21760362  0.41634610     1.04600
Cu1768     Cu  0.59498725  0.16563523  0.41723620     1.04300
C1769       C  0.57072417  0.19093757  0.46232337     0.93500
C1770       C  0.64576776  0.19228372  0.37127146     0.92700
C1771       C  0.57207836  0.19282223  0.37051678     0.84800
C1772       C  0.64427426  0.19037507  0.46306908     0.91100
O1773       O  0.56791896  0.42640211  0.45287856    -0.72700
O1774       O  0.62492509  0.48076556  0.38230458    -0.73600
O1775       O  0.57014755  0.42585891  0.38129468    -0.62300
O1776       O  0.62289711  0.48159489  0.45380774    -0.70700
O1777       O  0.64710089  0.45731573  0.45275820    -0.70200
O1778       O  0.59412922  0.40136835  0.38045064    -0.61500
O1779       O  0.64939500  0.45676570  0.38120876    -0.74000
O1780       O  0.59262643  0.40263132  0.45204488    -0.72800
Cu1781     Cu  0.59562669  0.45447565  0.41739658     1.04600
Cu1782     Cu  0.62165692  0.42869411  0.41676125     1.04300
C1783       C  0.57077184  0.40484658  0.46247633     0.93500
C1784       C  0.64677515  0.47852358  0.37186917     0.92700
C1785       C  0.57247892  0.40412584  0.37076355     0.84800
C1786       C  0.64457029  0.47888861  0.46344506     0.91100
O1787       O  0.76020501  0.23472105  0.21378067    -0.72700
O1788       O  0.81402579  0.29068814  0.28562661    -0.73600
O1789       O  0.75906229  0.23599368  0.28527350    -0.62300
O1790       O  0.81552759  0.28978848  0.21401927    -0.70700
O1791       O  0.79103986  0.31377263  0.21521670    -0.70200
O1792       O  0.73457959  0.25998794  0.28647921    -0.61500
O1793       O  0.78998678  0.31511928  0.28685209    -0.74000
O1794       O  0.73612544  0.25911885  0.21496163    -0.72800
Cu1795     Cu  0.78804328  0.26197418  0.24982916     1.04600
Cu1796     Cu  0.76211369  0.28785289  0.25073792     1.04300
C1797       C  0.73845133  0.23740160  0.20435901     0.93500
C1798       C  0.81170085  0.31237887  0.29632454     0.92700
C1799       C  0.73722541  0.23823589  0.29574338     0.84800
C1800       C  0.81277928  0.31143684  0.20457381     0.91100
C1801       C  0.66625367  0.08158784  0.32472651    -0.21000
C1802       C  0.69231198  0.08180959  0.33310973    -0.09100
C1803       C  0.71777683  0.10859924  0.34093098     0.29800
C1804       C  0.71704925  0.13464152  0.34042572    -0.21000
C1805       C  0.69097898  0.13442604  0.33216503    -0.09100
C1806       C  0.66553359  0.10765599  0.32419465     0.29800
F1807       F  0.64019871  0.10675720  0.31509627    -0.19600
H1808       H  0.64655611  0.06124947  0.31817410     0.18200
H1809       H  0.73674831  0.15495675  0.34704464     0.18200
F1810       F  0.74313058  0.10953660  0.35002177    -0.19600
C1811       C  0.95428933  0.35635983  0.30277537    -0.21000
C1812       C  0.96869749  0.35827592  0.33364140    -0.09100
C1813       C  0.95647050  0.36060832  0.36457789     0.29800
C1814       C  0.93013248  0.36092469  0.36448208    -0.21000
C1815       C  0.91564963  0.35886857  0.33362144    -0.09100
C1816       C  0.92800548  0.35677793  0.30267248     0.29800
F1817       F  0.91500823  0.35585148  0.27236451    -0.19600
H1818       H  0.96368500  0.35497408  0.27867857     0.18200
H1819       H  0.92074834  0.36232090  0.38858068     0.18200
F1820       F  0.96963536  0.36185802  0.39487162    -0.19600
C1821       C  0.74900784  0.27308474  0.01006308    -0.21000
C1822       C  0.74845893  0.24751845  0.49900593    -0.09100
C1823       C  0.77471574  0.24895591  0.48863728     0.29800
C1824       C  0.80103442  0.27574369  0.48906776    -0.21000
C1825       C  0.80152911  0.30134227  0.49995510    -0.09100
C1826       C  0.77534298  0.29980412  0.01074225     0.29800
F1827       F  0.77537927  0.32393812  0.02285983    -0.19600
H1828       H  0.72905184  0.27222615  0.01874957     0.18200
H1829       H  0.82102054  0.27659828  0.48052426     0.18200
F1830       F  0.77481617  0.22464653  0.47741932    -0.19600
C1831       C  0.88326911  0.44066228  0.17598522    -0.21000
C1832       C  0.85812230  0.41451114  0.16593424    -0.09100
C1833       C  0.83279814  0.41505437  0.15570356     0.29800
C1834       C  0.83270437  0.44143057  0.15575055    -0.21000
C1835       C  0.85785895  0.46759817  0.16579632    -0.09100
C1836       C  0.88318418  0.46703692  0.17602174     0.29800
F1837       F  0.90755946  0.49184106  0.18685465    -0.19600
H1838       H  0.90284785  0.44054696  0.18430331     0.18200
H1839       H  0.81312107  0.44153446  0.14743269     0.18200
F1840       F  0.80844881  0.39022995  0.14485302    -0.19600
C1841       C  0.58171478  0.16591950  0.17544022    -0.21000
C1842       C  0.58151732  0.19146958  0.16594236    -0.09100
C1843       C  0.60797879  0.21661529  0.15651454     0.29800
C1844       C  0.63426654  0.21625810  0.15715622    -0.21000
C1845       C  0.63450525  0.19079010  0.16689155    -0.09100
C1846       C  0.60797758  0.16550205  0.17588402     0.29800
F1847       F  0.60752957  0.14065159  0.18590675    -0.19600
H1848       H  0.56158635  0.14643619  0.18297266     0.18200
H1849       H  0.65439139  0.23571889  0.14955348     0.18200
F1850       F  0.60831094  0.24124694  0.14581880    -0.19600
C1851       C  0.55030048  0.30119186  0.51152120    -0.21000
C1852       C  0.52518327  0.30164099  0.00038385    -0.09100
C1853       C  0.00039122  0.27551953  0.98936927     0.29800
C1854       C  0.50068340  0.24927074  0.98985551    -0.21000
C1855       C  0.52574819  0.24878035  0.00105731    -0.09100
C1856       C  0.55063260  0.27493403  0.51188903     0.29800
F1857       F  0.57495012  0.27496174  0.52352758    -0.19600
H1858       H  0.56946611  0.32110040  0.52029634     0.18200
H1859       H  0.98153228  0.22938704  0.98098620     0.18200
F1860       F  0.97622386  0.27554213  0.97727926    -0.19600
C1861       C  0.77573775  0.49999634  0.00818352    -0.21000
C1862       C  0.80168307  0.02554464  0.49862561    -0.09100
C1863       C  0.80070673  0.05090729  0.49003444     0.29800
C1864       C  0.77410355  0.05058471  0.49114306    -0.21000
C1865       C  0.74816046  0.02502620  0.50069998    -0.09100
C1866       C  0.74914660  0.49967153  0.00928824     0.29800
F1867       F  0.72456749  0.47483284  0.01952940    -0.19600
H1868       H  0.77617501  0.48038579  0.01536944     0.18200
H1869       H  0.77365311  0.07019195  0.48397805     0.18200
F1870       F  0.82529617  0.07573863  0.47980129    -0.19600
C1871       C  0.96773450  0.10939927  0.32340355    -0.21000
C1872       C  0.96800170  0.13498084  0.33390554    -0.09100
C1873       C  0.94154218  0.13331456  0.34383624     0.29800
C1874       C  0.91528491  0.10642981  0.34308343    -0.21000
C1875       C  0.91503795  0.08086074  0.33257484    -0.09100
C1876       C  0.94148352  0.08252907  0.32263941     0.29800
F1877       F  0.94180592  0.05836436  0.31131893    -0.19600
H1878       H  0.98785809  0.11034624  0.31525674     0.18200
H1879       H  0.89513898  0.10546503  0.35117043     0.18200
F1880       F  0.94119092  0.15749126  0.35505554    -0.19600
C1881       C  0.58190700  0.44022350  0.17765900    -0.21000
C1882       C  0.58158523  0.41492399  0.16588475    -0.09100
C1883       C  0.60779858  0.41691503  0.15438651     0.29800
C1884       C  0.63400137  0.44380531  0.15520754    -0.21000
C1885       C  0.63437754  0.46905788  0.16722002    -0.09100
C1886       C  0.60809733  0.46715359  0.17834186     0.29800
F1887       F  0.60789528  0.49111939  0.19064615    -0.19600
H1888       H  0.56188596  0.43899572  0.18676220     0.18200
H1889       H  0.65400709  0.44503996  0.14602505     0.18200
F1890       F  0.60790828  0.39305847  0.14155692    -0.19600
C1891       C  0.55375634  0.38662554  0.66560829     0.03400
C1892       C  0.55193901  0.36200115  0.68117942    -0.12700
C1893       C  0.52520700  0.33519332  0.68235233     0.00900
C1894       C  0.00011380  0.33315284  0.66621159    -0.11300
C1895       C  0.00202818  0.35798436  0.64978025     0.03400
C1896       C  0.52889199  0.38458928  0.65036137    -0.10700
H1897       H  0.57132025  0.36429948  0.69378042     0.09000
H1898       H  0.97943263  0.31258737  0.66645158     0.06500
H1899       H  0.53100765  0.40382308  0.63774921     0.06400
C1900       C  0.66232553  0.49722320  0.66787120     0.03400
C1901       C  0.68709236  0.99896063  0.68306066    -0.12700
C1902       C  0.71418027  0.02535392  0.68341740     0.00900
C1903       C  0.71636171  0.05029854  0.66697499    -0.11300
C1904       C  0.69134625  0.04851899  0.65096010     0.03400
C1905       C  0.66443155  0.02193453  0.65230910    -0.10700
H1906       H  0.68477877  0.47963350  0.69564137     0.09000
H1907       H  0.73719707  0.07070290  0.66652146     0.06500
H1908       H  0.64512592  0.01981128  0.63970823     0.06400
C1909       C  0.99598434  0.16323545  0.83415906     0.03400
C1910       C  0.49800989  0.18782973  0.81825836    -0.12700
C1911       C  0.52482571  0.21453505  0.81689506     0.00900
C1912       C  0.54989507  0.21651034  0.83305169    -0.11300
C1913       C  0.54785710  0.19171250  0.84973963     0.03400
C1914       C  0.52083731  0.16522663  0.84947898    -0.10700
H1915       H  0.97871318  0.18557877  0.80551071     0.09000
H1916       H  0.57065438  0.23699680  0.83261806     0.06500
H1917       H  0.51862366  0.14606065  0.86235545     0.06400
C1918       C  0.88709135  0.05259948  0.83215074     0.03400
C1919       C  0.88498281  0.02806459  0.84828061    -0.12700
C1920       C  0.85823467  0.50127618  0.84929979     0.00900
C1921       C  0.83330422  0.49918798  0.83261370    -0.11300
C1922       C  0.83543911  0.02396496  0.81572717     0.03400
C1923       C  0.86240989  0.05050261  0.81626898    -0.10700
H1924       H  0.90417278  0.03042292  0.86141698     0.09000
H1925       H  0.81257759  0.47866441  0.83285506     0.06500
H1926       H  0.86471930  0.06965746  0.80326308     0.06400
O1927       O  0.81506355  0.04960631  0.71263953    -0.72700
O1928       O  0.75977811  0.04800573  0.78477451    -0.73600
O1929       O  0.81395777  0.04714922  0.78431648    -0.62300
O1930       O  0.76051195  0.05054118  0.71316669    -0.70700
O1931       O  0.73569378  0.00191569  0.71425233    -0.70200
O1932       O  0.78930730  0.49853200  0.78536282    -0.61500
O1933       O  0.73464451  0.49938323  0.78591769    -0.74000
O1934       O  0.78987503  0.00098046  0.71362305    -0.72800
Cu1935     Cu  0.78820080  0.05048949  0.74886598     1.04600
Cu1936     Cu  0.76150917  0.49852639  0.74962513     1.04300
C1937       C  0.81181654  0.02501823  0.70295882     0.93500
C1938       C  0.73787075  0.02397868  0.79552854     0.92700
C1939       C  0.81128704  0.02294130  0.79486578     0.84800
C1940       C  0.73841957  0.02617626  0.70380998     0.91100
O1941       O  0.54815586  0.25907816  0.71436864    -0.72700
O1942       O  0.55060887  0.31525038  0.78584589    -0.73600
O1943       O  0.55054133  0.26021070  0.78608115    -0.62300
O1944       O  0.54825349  0.31367835  0.71412121    -0.70700
O1945       O  0.99951929  0.28943774  0.71296291    -0.70200
O1946       O  0.50181159  0.23599169  0.78492941    -0.61500
O1947       O  0.50186920  0.29060739  0.78467238    -0.74000
O1948       O  0.49941651  0.23438625  0.71320026    -0.69200
Cu1949     Cu  0.55105780  0.28788955  0.74996120     1.04600
Cu1950     Cu  0.99897903  0.26176102  0.74907877     1.04300
C1951       C  0.52394920  0.23724893  0.70374935     0.93500
C1952       C  0.52608983  0.31242558  0.79529391     0.92700
C1953       C  0.52598215  0.23850015  0.79566170     0.84800
C1954       C  0.52408003  0.31117366  0.70342247     0.91100
C1955       C  0.82968275  0.02561956  0.49831330     0.03400
C1956       C  0.85437540  0.04813219  0.51443460    -0.12700
C1957       C  0.88103007  0.04818393  0.51543996     0.00900
C1958       C  0.88279949  0.02513818  0.49925157    -0.11300
C1959       C  0.85781508  0.00224811  0.98270265     0.03400
C1960       C  0.83141654  0.00274985  0.98279855    -0.10700
H1961       H  0.85226308  0.06505377  0.52756289     0.09000
H1962       H  0.90327448  0.02495294  0.49964436     0.06500
H1963       H  0.81215109  0.48573362  0.96975661     0.06400
C1964       C  0.72012350  0.02487284  0.00108242     0.03400
C1965       C  0.69543927  0.00225772  0.98509665    -0.12700
C1966       C  0.66862676  0.00188670  0.98445730     0.00900
C1967       C  0.66669806  0.02477284  0.00087416    -0.11300
C1968       C  0.69169735  0.04778883  0.51730315     0.03400
C1969       C  0.71825995  0.04759160  0.51678394    -0.10700
H1970       H  0.69766724  0.48546466  0.97181606     0.09000
H1971       H  0.64609940  0.02471867  0.00078065     0.06500
H1972       H  0.73754744  0.06468237  0.52971208     0.06400
C1973       C  0.52571025  0.22087540  0.50103296     0.03400
C1974       C  0.54816781  0.21885460  0.98479588    -0.12700
C1975       C  0.54794816  0.19216183  0.98345964     0.00900
C1976       C  0.52484993  0.16722514  0.49977093    -0.11300
C1977       C  0.50216279  0.16925128  0.51667427     0.03400
C1978       C  0.50277440  0.19615029  0.51654639    -0.10700
H1979       H  0.56527747  0.23809733  0.97192373     0.09000
H1980       H  0.52452575  0.14654225  0.49930433     0.06500
H1981       H  0.98585698  0.19835729  0.52963464     0.06400
C1982       C  0.52502823  0.32944699  0.00022936     0.03400
C1983       C  0.50222299  0.33123265  0.51590687    -0.12700
C1984       C  0.50185410  0.35763915  0.51634445     0.00900
C1985       C  0.52470309  0.38251352  0.99965796    -0.11300
C1986       C  0.54777057  0.38072310  0.98338296     0.03400
C1987       C  0.54776517  0.35413453  0.98447711    -0.10700
H1988       H  0.98526092  0.31203176  0.52899729     0.09000
H1989       H  0.52456853  0.40296901  0.99940756     0.06500
H1990       H  0.56494185  0.35207601  0.97182861     0.06400
C1991       C  0.55358713  0.19160133  0.66591800     0.03400
C1992       C  0.52878185  0.16879825  0.65028853    -0.12700
C1993       C  0.00192477  0.16837363  0.64984340     0.00900
C1994       C  0.00000580  0.19123081  0.66641310    -0.11300
C1995       C  0.52502153  0.21426580  0.68283032     0.03400
C1996       C  0.55164890  0.21417869  0.68195224    -0.10700
H1997       H  0.53091672  0.15183668  0.63727004     0.09000
H1998       H  0.97936797  0.19109487  0.66652898     0.06500
H1999       H  0.57090513  0.23118069  0.69501512     0.06400
C2000       C  0.66252034  0.19083713  0.66728121     0.03400
C2001       C  0.66468942  0.16851529  0.65102534    -0.12700
C2002       C  0.69138980  0.16862094  0.65016268     0.00900
C2003       C  0.71628936  0.19158119  0.66680709    -0.11300
C2004       C  0.71419338  0.21424774  0.68359302     0.03400
C2005       C  0.68721094  0.21361859  0.68320536    -0.10700
H2006       H  0.64555342  0.15159624  0.63770380     0.09000
H2007       H  0.73699189  0.19184805  0.66662129     0.06500
H2008       H  0.68493630  0.23044862  0.69634652     0.06400
O2009       O  0.66587214  0.12268186  0.54666124    -0.72700
O2010       O  0.66849889  0.06987417  0.61878872    -0.73600
O2011       O  0.66843683  0.12410259  0.61827421    -0.62300
O2012       O  0.66607154  0.06797541  0.54722096    -0.70700
O2013       O  0.71482658  0.09271998  0.54843627    -0.70200
O2014       O  0.71718285  0.14890215  0.61954064    -0.61500
O2015       O  0.71723706  0.09408676  0.62006265    -0.74000
O2016       O  0.71461371  0.14698881  0.54784165    -0.72800
Cu2017     Cu  0.66555601  0.09532308  0.58286516     1.04600
Cu2018     Cu  0.71765967  0.12154024  0.58380965     1.04300
C2019       C  0.69040782  0.14436170  0.53705697     0.93500
C2020       C  0.69264353  0.07244232  0.62965260     0.92700
C2021       C  0.69260530  0.14589328  0.62901055     0.84800
C2022       C  0.69062666  0.07085315  0.53789663     0.91100
C2023       C  0.85840741  0.38673861  0.66638579     0.03400
C2024       C  0.83598186  0.36221002  0.68275531    -0.12700
C2025       C  0.83577657  0.33552204  0.68358335     0.00900
C2026       C  0.85857834  0.33356201  0.66684732    -0.11300
C2027       C  0.88136948  0.35838022  0.64998699     0.03400
C2028       C  0.88111275  0.38486387  0.65054723    -0.10700
H2029       H  0.81910419  0.36441716  0.69592457     0.09000
H2030       H  0.85857246  0.31303715  0.66691321     0.06500
H2031       H  0.89803043  0.40402798  0.63735282     0.06400
C2032       C  0.85758659  0.49539926  0.66539326     0.03400
C2033       C  0.83472699  0.49720293  0.68098329    -0.12700
C2034       C  0.83459926  0.02375310  0.68181080     0.00900
C2035       C  0.85762023  0.04868001  0.66538472    -0.11300
C2036       C  0.88052829  0.04680740  0.64882252     0.03400
C2037       C  0.88024195  0.02007354  0.64943751    -0.10700
H2038       H  0.81762784  0.47796002  0.69387594     0.09000
H2039       H  0.85772975  0.06925805  0.66553614     0.06500
H2040       H  0.89723706  0.01797018  0.63641318     0.06400
O2041       O  0.98188493  0.38326363  0.54671108    -0.72700
O2042       O  0.92601032  0.38125842  0.61813450    -0.73600
O2043       O  0.98037797  0.38093712  0.61832773    -0.62300
O2044       O  0.92711545  0.38357319  0.54652142    -0.70700
O2045       O  0.90264204  0.33494633  0.54771018    -0.70200
O2046       O  0.95600512  0.33231127  0.61948079    -0.61500
O2047       O  0.90116709  0.33263237  0.61940080    -0.74000
O2048       O  0.95702408  0.33462961  0.54784262    -0.72800
Cu2049     Cu  0.95469759  0.38392232  0.58256516     1.04600
Cu2050     Cu  0.92834397  0.33194690  0.58345944     1.04300
C2051       C  0.97888751  0.35874303  0.53721857     0.93500
C2052       C  0.90418975  0.35717493  0.62888006     0.92700
C2053       C  0.97783317  0.35681298  0.62897962     0.84800
C2054       C  0.90526025  0.35909740  0.53703270     0.91100
O2055       O  0.95729977  0.14727562  0.54808448    -0.72700
O2056       O  0.90091037  0.09279079  0.61894247    -0.73600
O2057       O  0.95597874  0.14802853  0.61963335    -0.62300
O2058       O  0.90273118  0.09260002  0.54741062    -0.70700
O2059       O  0.92676217  0.06815362  0.54599203    -0.70200
O2060       O  0.98015191  0.12372773  0.61813872    -0.61500
O2061       O  0.92548257  0.06889284  0.61752402    -0.74000
O2062       O  0.98178818  0.12329191  0.54654362    -0.72800
Cu2063     Cu  0.92838534  0.12099220  0.58339394     1.04600
Cu2064     Cu  0.95439362  0.09518631  0.58218956     1.04300
C2065       C  0.97904645  0.14500310  0.53734552     0.93500
C2066       C  0.90365993  0.07108613  0.62815694     0.92700
C2067       C  0.97772436  0.14532581  0.62897672     0.84800
C2068       C  0.90512324  0.07100083  0.53655115     0.91100
C2069       C  0.72040400  0.21947924  0.99881244     0.03400
C2070       C  0.71837750  0.19480640  0.51435331    -0.12700
C2071       C  0.69151018  0.16824528  0.51586705     0.00900
C2072       C  0.66638263  0.16644557  0.00012277    -0.11300
C2073       C  0.66845527  0.19136378  0.98373230     0.03400
C2074       C  0.69552380  0.21776971  0.98396696    -0.10700
H2075       H  0.73773790  0.19692226  0.52678838     0.09000
H2076       H  0.64556926  0.14601777  0.00064379     0.06500
H2077       H  0.69776683  0.23705324  0.97136082     0.06400
C2078       C  0.82947384  0.32950174  0.00016275     0.03400
C2079       C  0.85433910  0.33138610  0.51522154    -0.12700
C2080       C  0.88113424  0.35803761  0.51622658     0.00900
C2081       C  0.88299381  0.38306050  0.00037548    -0.11300
C2082       C  0.85792009  0.38113294  0.98435005     0.03400
C2083       C  0.83127926  0.35427122  0.98505644    -0.10700
H2084       H  0.85225211  0.31204330  0.52749861     0.09000
H2085       H  0.90362025  0.40368746  0.00048466     0.06500
H2086       H  0.81193751  0.35207298  0.97247183     0.06400
C2087       C  0.99664962  0.35820299  0.83335077     0.03400
C2088       C  0.52141442  0.38076685  0.84932841    -0.12700
C2089       C  0.54823166  0.38106742  0.84983143     0.00900
C2090       C  0.55006818  0.35823060  0.83305388    -0.11300
C2091       C  0.52508066  0.33545104  0.81622984     0.03400
C2092       C  0.99854848  0.33576483  0.81691386    -0.10700
H2093       H  0.51942603  0.39794834  0.86196051     0.09000
H2094       H  0.57062799  0.35820566  0.83305206     0.06500
H2095       H  0.97913716  0.31865754  0.80416767     0.06400
C2096       C  0.88750904  0.35858080  0.83392119     0.03400
C2097       C  0.88530593  0.38075882  0.85056757    -0.12700
C2098       C  0.85863952  0.38080093  0.85120511     0.00900
C2099       C  0.83380503  0.35798132  0.83428947    -0.11300
C2100       C  0.83591246  0.33539736  0.81731248     0.03400
C2101       C  0.86287304  0.33596923  0.81773186    -0.10700
H2102       H  0.90460411  0.39791990  0.86342499     0.09000
H2103       H  0.81314765  0.35781227  0.83431553     0.06500
H2104       H  0.86504813  0.31897459  0.80489463     0.06400
O2105       O  0.88339409  0.48183330  0.95327838    -0.72700
O2106       O  0.88147838  0.42561897  0.88263553    -0.73600
O2107       O  0.88118042  0.47998975  0.88169198    -0.62300
O2108       O  0.88356154  0.42705410  0.95418799    -0.70700
O2109       O  0.83482358  0.40267995  0.95280842    -0.70200
O2110       O  0.83245447  0.45565161  0.88025746    -0.61500
O2111       O  0.83273900  0.40078987  0.88115774    -0.74000
O2112       O  0.83463873  0.45710960  0.95191532    -0.72800
Cu2113     Cu  0.88406407  0.45447131  0.91783303     1.04600
Cu2114     Cu  0.83197456  0.42820371  0.91668575     1.04300
C2115       C  0.85883041  0.47902033  0.96241627     0.93500
C2116       C  0.85736268  0.40371590  0.87198203     0.92700
C2117       C  0.85702359  0.47737640  0.87072834     0.84800
C2118       C  0.85900769  0.40525604  0.96359064     0.91100
C2119       C  0.69263478  0.05399119  0.83372106     0.03400
C2120       C  0.67031714  0.02952803  0.85040759    -0.12700
C2121       C  0.66994395  0.50273389  0.85108502     0.00900
C2122       C  0.69258989  0.50065561  0.83410564    -0.11300
C2123       C  0.71519470  0.02532290  0.81682348     0.03400
C2124       C  0.71488665  0.05178101  0.81713774    -0.10700
H2125       H  0.65356371  0.03180344  0.86379486     0.09000
H2126       H  0.69253905  0.48010817  0.83418596     0.06500
H2127       H  0.73143548  0.07065060  0.80319818     0.06400
C2128       C  0.69068968  0.16226511  0.83208306     0.03400
C2129       C  0.66849518  0.16441331  0.84891743    -0.12700
C2130       C  0.66852471  0.19104265  0.85005112     0.00900
C2131       C  0.69140083  0.21592638  0.83339488    -0.11300
C2132       C  0.71395683  0.21388807  0.81619246     0.03400
C2133       C  0.71323840  0.18693592  0.81598294    -0.10700
H2134       H  0.65173023  0.14535435  0.86239044     0.09000
H2135       H  0.69169753  0.23659287  0.83390068     0.06500
H2136       H  0.72992086  0.18471559  0.80234913     0.06400
O2137       O  0.59263463  0.21500834  0.95169501    -0.72700
O2138       O  0.64879957  0.21684291  0.88070089    -0.73600
O2139       O  0.59395245  0.21729618  0.88003660    -0.62300
O2140       O  0.64695996  0.21455296  0.95237736    -0.70700
O2141       O  0.62238327  0.16592546  0.95355791    -0.70200
O2142       O  0.56947253  0.16867497  0.88119651    -0.61500
O2143       O  0.62386496  0.16822020  0.88193265    -0.74000
O2144       O  0.56764994  0.16638103  0.95283937    -0.72800
Cu2145     Cu  0.62144873  0.21760356  0.91634607     1.04600
Cu2146     Cu  0.59498724  0.16563522  0.91723618     1.04300
C2147       C  0.57072412  0.19093749  0.96232337     0.93500
C2148       C  0.64576774  0.19228373  0.87127140     0.92700
C2149       C  0.57207836  0.19282227  0.87051676     0.84800
C2150       C  0.64427425  0.19037504  0.96306906     0.91100
O2151       O  0.56791897  0.42640211  0.95287850    -0.72700
O2152       O  0.62492509  0.48076555  0.88230458    -0.73600
O2153       O  0.57014751  0.42585889  0.88129466    -0.62300
O2154       O  0.62289710  0.48159484  0.95380776    -0.70700
O2155       O  0.64710088  0.45731568  0.95275814    -0.70200
O2156       O  0.59412922  0.40136837  0.88045057    -0.61500
O2157       O  0.64939500  0.45676569  0.88120871    -0.74000
O2158       O  0.59262641  0.40263129  0.95204480    -0.72800
Cu2159     Cu  0.59562669  0.45447564  0.91739656     1.04600
Cu2160     Cu  0.62165692  0.42869408  0.91676118     1.04300
C2161       C  0.57077186  0.40484656  0.96247627     0.93500
C2162       C  0.64677516  0.47852358  0.87186916     0.92700
C2163       C  0.57247889  0.40412583  0.87076352     0.84800
C2164       C  0.64457028  0.47888857  0.96344505     0.91100
O2165       O  0.76020500  0.23472109  0.71378070    -0.72700
O2166       O  0.81402577  0.29068814  0.78562660    -0.73600
O2167       O  0.75906229  0.23599375  0.78527347    -0.62300
O2168       O  0.81552758  0.28978852  0.71401925    -0.70700
O2169       O  0.79103984  0.31377266  0.71521667    -0.70200
O2170       O  0.73457962  0.25998804  0.78647922    -0.61500
O2171       O  0.78998680  0.31511933  0.78685202    -0.74000
O2172       O  0.73612544  0.25911891  0.71496165    -0.72800
Cu2173     Cu  0.78804328  0.26197421  0.74982915     1.04600
Cu2174     Cu  0.76211371  0.28785294  0.75073791     1.04300
C2175       C  0.73845132  0.23740163  0.70435904     0.93500
C2176       C  0.81170085  0.31237888  0.79632449     0.92700
C2177       C  0.73722541  0.23823597  0.79574334     0.84800
C2178       C  0.81277928  0.31143686  0.70457378     0.91100
C2179       C  0.66625382  0.08158796  0.82472665    -0.21000
C2180       C  0.69231205  0.08180961  0.83310970    -0.09100
C2181       C  0.71777697  0.10859930  0.84093077     0.29800
C2182       C  0.71704933  0.13464153  0.84042551    -0.21000
C2183       C  0.69097908  0.13442611  0.83216499    -0.09100
C2184       C  0.66553364  0.10765600  0.82419478     0.29800
F2185       F  0.64019872  0.10675719  0.81509659    -0.19600
H2186       H  0.64655581  0.06124915  0.81817421     0.18200
H2187       H  0.73674869  0.15495705  0.84704443     0.18200
F2188       F  0.74313075  0.10953666  0.85002137    -0.19600
C2189       C  0.95428935  0.35635991  0.80277537    -0.21000
C2190       C  0.96869743  0.35827587  0.83364143    -0.09100
C2191       C  0.95647038  0.36060817  0.86457794     0.29800
C2192       C  0.93013241  0.36092458  0.86448205    -0.21000
C2193       C  0.91564959  0.35886855  0.83362147    -0.09100
C2194       C  0.92800549  0.35677800  0.80267248     0.29800
F2195       F  0.91500828  0.35585161  0.77236450    -0.19600
H2196       H  0.96368502  0.35497422  0.77867864     0.18200
H2197       H  0.92074812  0.36232075  0.88858096     0.18200
F2198       F  0.96963515  0.36185771  0.89487167    -0.19600
C2199       C  0.74900781  0.27308474  0.51006315    -0.21000
C2200       C  0.74845896  0.24751845  0.99900598    -0.09100
C2201       C  0.77471582  0.24895591  0.98863747     0.29800
C2202       C  0.80103444  0.27574370  0.98906797    -0.21000
C2203       C  0.80152914  0.30134228  0.99995516    -0.09100
C2204       C  0.77534299  0.29980412  0.51074229     0.29800
F2205       F  0.77537933  0.32393811  0.52286001    -0.19600
H2206       H  0.72905196  0.27222613  0.51874968     0.18200
H2207       H  0.82102084  0.27659830  0.98052446     0.18200
F2208       F  0.77481631  0.22464652  0.97741970    -0.19600
C2209       C  0.88326948  0.44066236  0.67598548    -0.21000
C2210       C  0.85812239  0.41451122  0.66593435    -0.09100
C2211       C  0.83279830  0.41505447  0.65570362     0.29800
C2212       C  0.83270447  0.44143068  0.65575058    -0.21000
C2213       C  0.85785912  0.46759828  0.66579643    -0.09100
C2214       C  0.88318427  0.46703702  0.67602190     0.29800
F2215       F  0.90755954  0.49184114  0.68685491    -0.19600
H2216       H  0.90284696  0.44054704  0.68430307     0.18200
H2217       H  0.81312147  0.44153458  0.64743281     0.18200
F2218       F  0.80844897  0.39023005  0.64485307    -0.19600
C2219       C  0.58171497  0.16591966  0.67544014    -0.21000
C2220       C  0.58151725  0.19146952  0.66594229    -0.09100
C2221       C  0.60797869  0.21661521  0.65651443     0.29800
C2222       C  0.63426672  0.21625832  0.65715610    -0.21000
C2223       C  0.63450521  0.19079009  0.66689161    -0.09100
C2224       C  0.60797756  0.16550204  0.67588407     0.29800
F2225       F  0.60752963  0.14065165  0.68590688    -0.19600
H2226       H  0.56158552  0.14643537  0.68297300     0.18200
H2227       H  0.65439040  0.23571799  0.64955378     0.18200
F2228       F  0.60831086  0.24124687  0.64581863    -0.19600
C2229       C  0.55030037  0.30119172  0.01152102    -0.21000
C2230       C  0.52518329  0.30164102  0.50038389    -0.09100
C2231       C  0.00039132  0.27551959  0.48936925     0.29800
C2232       C  0.50068353  0.24927083  0.48985549    -0.21000
C2233       C  0.52574823  0.24878039  0.50105738    -0.09100
C2234       C  0.55063260  0.27493400  0.01188888     0.29800
F2235       F  0.57495015  0.27496171  0.02352729    -0.19600
H2236       H  0.56946656  0.32110082  0.02029633     0.18200
H2237       H  0.98153246  0.22938715  0.48098607     0.18200
F2238       F  0.97622399  0.27554221  0.47727916    -0.19600
C2239       C  0.77573768  0.49999636  0.50818351    -0.21000
C2240       C  0.80168313  0.02554468  0.99862565    -0.09100
C2241       C  0.80070678  0.05090734  0.99003449     0.29800
C2242       C  0.77410358  0.05058460  0.99114315    -0.21000
C2243       C  0.74816051  0.02502620  0.00069999    -0.09100
C2244       C  0.74914655  0.49967150  0.50928829     0.29800
F2245       F  0.72456742  0.47483284  0.51952942    -0.19600
H2246       H  0.77617492  0.48038542  0.51536956     0.18200
H2247       H  0.77365310  0.07019242  0.98397789     0.18200
F2248       F  0.82529620  0.07573870  0.97980132    -0.19600
C2249       C  0.96773448  0.10939937  0.82340347    -0.21000
C2250       C  0.96800171  0.13498092  0.83390563    -0.09100
C2251       C  0.94154219  0.13331457  0.84383650     0.29800
C2252       C  0.91528499  0.10642982  0.84308369    -0.21000
C2253       C  0.91503796  0.08086078  0.83257493    -0.09100
C2254       C  0.94148354  0.08252916  0.82263933     0.29800
F2255       F  0.94180593  0.05836447  0.81131873    -0.19600
H2256       H  0.98785814  0.11034640  0.81525649     0.18200
H2257       H  0.89513883  0.10546499  0.85117092     0.18200
F2258       F  0.94119095  0.15749125  0.85505590    -0.19600
C2259       C  0.58190695  0.44022349  0.67765897    -0.21000
C2260       C  0.58158524  0.41492398  0.66588477    -0.09100
C2261       C  0.60779859  0.41691504  0.65438662     0.29800
C2262       C  0.63400153  0.44380536  0.65520757    -0.21000
C2263       C  0.63437747  0.46905791  0.66722009    -0.09100
C2264       C  0.60809726  0.46715360  0.67834181     0.29800
F2265       F  0.60789514  0.49111939  0.69064598    -0.19600
H2266       H  0.56188592  0.43899570  0.68676209     0.18200
H2267       H  0.65400647  0.44503999  0.64602547     0.18200
F2268       F  0.60790838  0.39305852  0.64155704    -0.19600
C2269       C  0.55375634  0.88662558  0.16560830     0.03400
C2270       C  0.55193904  0.86200121  0.18117940    -0.12700
C2271       C  0.52520701  0.83519335  0.18235231     0.00900
C2272       C  0.00011401  0.83315303  0.16621154    -0.11300
C2273       C  0.00202818  0.85798437  0.14978028     0.03400
C2274       C  0.52889200  0.88458946  0.15036135    -0.10700
H2275       H  0.57132030  0.86429953  0.19378039     0.09000
H2276       H  0.97943216  0.81258685  0.16645151     0.06500
H2277       H  0.53100758  0.90382272  0.13774958     0.06400
C2278       C  0.66232557  0.99722317  0.16787113     0.03400
C2279       C  0.68709241  0.49896068  0.18306058    -0.12700
C2280       C  0.71418028  0.52535390  0.18341738     0.00900
C2281       C  0.71636194  0.55029871  0.16697494    -0.11300
C2282       C  0.69134629  0.54851898  0.15096002     0.03400
C2283       C  0.66443167  0.52193457  0.15230907    -0.10700
H2284       H  0.68477880  0.97963329  0.19564139     0.09000
H2285       H  0.73719643  0.57070219  0.16652141     0.06500
H2286       H  0.64512574  0.51981130  0.13970803     0.06400
C2287       C  0.99598435  0.66323544  0.33415897     0.03400
C2288       C  0.49800999  0.68782972  0.31825828    -0.12700
C2289       C  0.52482577  0.71453505  0.31689501     0.00900
C2290       C  0.54989519  0.71651039  0.33305168    -0.11300
C2291       C  0.54785711  0.69171248  0.34973964     0.03400
C2292       C  0.52083732  0.66522653  0.34947905    -0.10700
H2293       H  0.97871321  0.68557872  0.30551057     0.09000
H2294       H  0.57065414  0.73699652  0.33261808     0.06500
H2295       H  0.51862370  0.64606097  0.36235526     0.06400
C2296       C  0.88709139  0.55259945  0.33215070     0.03400
C2297       C  0.88498285  0.52806460  0.34828063    -0.12700
C2298       C  0.85823463  0.00127611  0.34929976     0.00900
C2299       C  0.83330424  0.99918799  0.33261371    -0.11300
C2300       C  0.83543916  0.52396496  0.31572716     0.03400
C2301       C  0.86240993  0.55050274  0.31626883    -0.10700
H2302       H  0.90417269  0.53042293  0.36141697     0.09000
H2303       H  0.81257729  0.97866410  0.33285512     0.06500
H2304       H  0.86471928  0.56965683  0.30326343     0.06400
O2305       O  0.81506358  0.54960634  0.21263951    -0.72700
O2306       O  0.75977812  0.54800579  0.28477448    -0.73600
O2307       O  0.81395779  0.54714923  0.28431649    -0.62300
O2308       O  0.76051200  0.55054121  0.21316665    -0.70700
O2309       O  0.73569378  0.50191572  0.21425240    -0.70200
O2310       O  0.78930725  0.99853194  0.28536286    -0.61500
O2311       O  0.73464453  0.99938326  0.28591778    -0.74000
O2312       O  0.78987506  0.50098049  0.21362307    -0.72800
Cu2313     Cu  0.78820084  0.55048954  0.24886597     1.04600
Cu2314     Cu  0.76150917  0.99852640  0.24962517     1.04300
C2315       C  0.81181656  0.52501824  0.20295883     0.93500
C2316       C  0.73787078  0.52397874  0.29552856     0.92700
C2317       C  0.81128707  0.52294131  0.29486576     0.84800
C2318       C  0.73841960  0.52617628  0.20381000     0.91100
O2319       O  0.54815593  0.75907824  0.21436860    -0.72700
O2320       O  0.55060893  0.81525041  0.28584587    -0.73600
O2321       O  0.55054144  0.76021074  0.28608111    -0.62300
O2322       O  0.54825356  0.81367842  0.21412124    -0.70700
O2323       O  0.99951940  0.78943780  0.21296287    -0.70200
O2324       O  0.50181170  0.73599176  0.28492940    -0.61500
O2325       O  0.50186925  0.79060742  0.28467233    -0.74000
O2326       O  0.49941658  0.73438628  0.21320031    -0.69200
Cu2327     Cu  0.55105789  0.78788960  0.24996119     1.04600
Cu2328     Cu  0.99897909  0.76176107  0.24907874     1.04300
C2329       C  0.52394926  0.73724897  0.20374937     0.93500
C2330       C  0.52608989  0.81242563  0.29529386     0.92700
C2331       C  0.52598225  0.73850020  0.29566167     0.84800
C2332       C  0.52408011  0.81117370  0.20342245     0.91100
C2333       C  0.82968284  0.52561963  0.99831325     0.03400
C2334       C  0.85437541  0.54813234  0.01443466    -0.12700
C2335       C  0.88103011  0.54818391  0.01543994     0.00900
C2336       C  0.88279944  0.52513817  0.99925156    -0.11300
C2337       C  0.85781504  0.50224809  0.48270261     0.03400
C2338       C  0.83141645  0.50274977  0.48279859    -0.10700
H2339       H  0.85226318  0.56505319  0.02756241     0.09000
H2340       H  0.90327470  0.52495290  0.99964441     0.06500
H2341       H  0.81214982  0.98573245  0.46975589     0.06400
C2342       C  0.72012352  0.52487293  0.50108249     0.03400
C2343       C  0.69543924  0.50225776  0.48509663    -0.12700
C2344       C  0.66862679  0.50188680  0.48445732     0.00900
C2345       C  0.66669782  0.52477291  0.50087418    -0.11300
C2346       C  0.69169742  0.54778883  0.01730312     0.03400
C2347       C  0.71825986  0.54759151  0.01678382    -0.10700
H2348       H  0.69766712  0.98546516  0.47181652     0.09000
H2349       H  0.64610037  0.52471877  0.50078068     0.06500
H2350       H  0.73754791  0.56468276  0.02971234     0.06400
C2351       C  0.52571020  0.72087535  0.00103288     0.03400
C2352       C  0.54816800  0.71885482  0.48479588    -0.12700
C2353       C  0.54794815  0.69216184  0.48345964     0.00900
C2354       C  0.52484994  0.66722523  0.99977097    -0.11300
C2355       C  0.50216278  0.66925123  0.01667426     0.03400
C2356       C  0.50277437  0.69615026  0.01654637    -0.10700
H2357       H  0.56527712  0.73809690  0.47192423     0.09000
H2358       H  0.52452580  0.64654179  0.99930441     0.06500
H2359       H  0.98585697  0.69835725  0.02963458     0.06400
C2360       C  0.52502826  0.82944701  0.50022947     0.03400
C2361       C  0.50222298  0.83123263  0.01590678    -0.12700
C2362       C  0.50185412  0.85763921  0.01634440     0.00900
C2363       C  0.52470304  0.88251359  0.49965798    -0.11300
C2364       C  0.54777055  0.88072309  0.48338301     0.03400
C2365       C  0.54776520  0.85413458  0.48447723    -0.10700
H2366       H  0.98526088  0.81203175  0.02899723     0.09000
H2367       H  0.52456844  0.90296859  0.49940755     0.06500
H2368       H  0.56494192  0.85207606  0.47182876     0.06400
C2369       C  0.55358717  0.69160131  0.16591811     0.03400
C2370       C  0.52878185  0.66879834  0.15028873    -0.12700
C2371       C  0.00192478  0.66837361  0.14984349     0.00900
C2372       C  0.00000582  0.69123082  0.16641318    -0.11300
C2373       C  0.52502159  0.71426583  0.18283040     0.03400
C2374       C  0.55164887  0.71417864  0.18195228    -0.10700
H2375       H  0.53091678  0.65183623  0.13726984     0.09000
H2376       H  0.97936799  0.69109489  0.16652902     0.06500
H2377       H  0.57090552  0.73118101  0.19501542     0.06400
C2378       C  0.66252035  0.69083710  0.16728114     0.03400
C2379       C  0.66468963  0.66851542  0.15102538    -0.12700
C2380       C  0.69138988  0.66862095  0.15016261     0.00900
C2381       C  0.71628924  0.69158121  0.16680703    -0.11300
C2382       C  0.71419343  0.71424775  0.18359298     0.03400
C2383       C  0.68721098  0.71361848  0.18320523    -0.10700
H2384       H  0.64555284  0.65159565  0.13770329     0.09000
H2385       H  0.73699275  0.69184809  0.16662124     0.06500
H2386       H  0.68493627  0.73044900  0.19634679     0.06400
O2387       O  0.66587217  0.62268187  0.04666121    -0.72700
O2388       O  0.66849899  0.56987422  0.11878867    -0.73600
O2389       O  0.66843693  0.62410261  0.11827418    -0.62300
O2390       O  0.66607157  0.56797541  0.04722093    -0.70700
O2391       O  0.71482661  0.59271999  0.04843617    -0.70200
O2392       O  0.71718295  0.64890219  0.11954052    -0.61500
O2393       O  0.71723716  0.59408679  0.12006259    -0.74000
O2394       O  0.71461373  0.64698882  0.04784156    -0.72800
Cu2395     Cu  0.66555610  0.59532311  0.08286512     1.04600
Cu2396     Cu  0.71765974  0.62154027  0.08380955     1.04300
C2397       C  0.69040781  0.64436170  0.03705692     0.93500
C2398       C  0.69264366  0.57244236  0.12965255     0.92700
C2399       C  0.69260540  0.64589330  0.12901049     0.84800
C2400       C  0.69062667  0.57085313  0.03789657     0.91100
C2401       C  0.85840736  0.88673856  0.16638565     0.03400
C2402       C  0.83598180  0.86220996  0.18275527    -0.12700
C2403       C  0.83577657  0.83552201  0.18358334     0.00900
C2404       C  0.85857832  0.83356198  0.16684729    -0.11300
C2405       C  0.88136947  0.85838023  0.14998689     0.03400
C2406       C  0.88111250  0.88486363  0.15054726    -0.10700
H2407       H  0.81910420  0.86441710  0.19592449     0.09000
H2408       H  0.85857249  0.81303714  0.16691319     0.06500
H2409       H  0.89803110  0.90402878  0.13735211     0.06400
C2410       C  0.85758655  0.99539921  0.16539317     0.03400
C2411       C  0.83472692  0.99720287  0.18098322    -0.12700
C2412       C  0.83459929  0.52375317  0.18181079     0.00900
C2413       C  0.85762027  0.54867981  0.16538476    -0.11300
C2414       C  0.88052832  0.54680742  0.14882253     0.03400
C2415       C  0.88024179  0.52007348  0.14943751    -0.10700
H2416       H  0.81762782  0.97796004  0.19387578     0.09000
H2417       H  0.85772986  0.56925899  0.16553626     0.06500
H2418       H  0.89723741  0.51797007  0.13641276     0.06400
O2419       O  0.98188501  0.88326364  0.04671112    -0.72700
O2420       O  0.92601030  0.88125842  0.11813442    -0.73600
O2421       O  0.98037796  0.88093714  0.11832777    -0.62300
O2422       O  0.92711553  0.88357320  0.04652136    -0.70700
O2423       O  0.90264211  0.83494635  0.04771016    -0.70200
O2424       O  0.95600515  0.83231130  0.11948076    -0.61500
O2425       O  0.90116710  0.83263238  0.11940074    -0.74000
O2426       O  0.95702410  0.83462964  0.04784260    -0.72800
Cu2427     Cu  0.95469762  0.88392232  0.08256514     1.04600
Cu2428     Cu  0.92834402  0.83194693  0.08345941     1.04300
C2429       C  0.97888754  0.85874303  0.03721857     0.93500
C2430       C  0.90418972  0.85717491  0.12887998     0.92700
C2431       C  0.97783319  0.85681304  0.12897964     0.84800
C2432       C  0.90526032  0.85909741  0.03703267     0.91100
O2433       O  0.95729979  0.64727564  0.04808453    -0.72700
O2434       O  0.90091043  0.59279082  0.11894254    -0.73600
O2435       O  0.95597875  0.64802853  0.11963340    -0.62300
O2436       O  0.90273118  0.59260000  0.04741070    -0.70700
O2437       O  0.92676217  0.56815361  0.04599207    -0.70200
O2438       O  0.98015194  0.62372775  0.11813875    -0.61500
O2439       O  0.92548259  0.56889283  0.11752407    -0.74000
O2440       O  0.98178816  0.62329189  0.04654365    -0.72800
Cu2441     Cu  0.92838536  0.62099222  0.08339399     1.04600
Cu2442     Cu  0.95439362  0.59518630  0.08218960     1.04300
C2443       C  0.97904644  0.64500308  0.03734554     0.93500
C2444       C  0.90365997  0.57108613  0.12815699     0.92700
C2445       C  0.97772437  0.64532582  0.12897677     0.84800
C2446       C  0.90512324  0.57100082  0.03655120     0.91100
C2447       C  0.72040394  0.71947921  0.49881246     0.03400
C2448       C  0.71837754  0.69480639  0.01435326    -0.12700
C2449       C  0.69151020  0.66824530  0.01586700     0.00900
C2450       C  0.66638260  0.66644554  0.50012282    -0.11300
C2451       C  0.66845521  0.69136372  0.48373233     0.03400
C2452       C  0.69552373  0.71776971  0.48396692    -0.10700
H2453       H  0.73773771  0.69692221  0.02678815     0.09000
H2454       H  0.64556922  0.64601771  0.50064387     0.06500
H2455       H  0.69776674  0.73705300  0.47136087     0.06400
C2456       C  0.82947382  0.82950166  0.50016269     0.03400
C2457       C  0.85433912  0.83138611  0.01522165    -0.12700
C2458       C  0.88113427  0.85803760  0.01622663     0.00900
C2459       C  0.88299374  0.88306043  0.50037548    -0.11300
C2460       C  0.85792006  0.88113289  0.48435003     0.03400
C2461       C  0.83127920  0.85427116  0.48505637    -0.10700
H2462       H  0.85225215  0.81204332  0.02749875     0.09000
H2463       H  0.90362027  0.90368753  0.50048476     0.06500
H2464       H  0.81193759  0.85207293  0.47247186     0.06400
C2465       C  0.99664959  0.85820294  0.33335073     0.03400
C2466       C  0.52141444  0.88076698  0.34932846    -0.12700
C2467       C  0.54823166  0.88106741  0.34983141     0.00900
C2468       C  0.55006825  0.85823064  0.33305385    -0.11300
C2469       C  0.52508066  0.83545105  0.31622978     0.03400
C2470       C  0.99854870  0.83576502  0.31691401    -0.10700
H2471       H  0.51942610  0.89794791  0.36196013     0.09000
H2472       H  0.57062787  0.85820571  0.33305200     0.06500
H2473       H  0.97913630  0.81865674  0.30416713     0.06400
C2474       C  0.88750902  0.85858080  0.33392122     0.03400
C2475       C  0.88530600  0.88075886  0.35056760    -0.12700
C2476       C  0.85863951  0.88080092  0.35120512     0.00900
C2477       C  0.83380500  0.85798131  0.33428947    -0.11300
C2478       C  0.83591244  0.83539738  0.31731252     0.03400
C2479       C  0.86287305  0.83596899  0.31773169    -0.10700
H2480       H  0.90460380  0.89791962  0.36342479     0.09000
H2481       H  0.81314771  0.85781228  0.33431555     0.06500
H2482       H  0.86504799  0.81897555  0.30489538     0.06400
O2483       O  0.88339408  0.98183331  0.45327840    -0.72700
O2484       O  0.88147838  0.92561895  0.38263558    -0.73600
O2485       O  0.88118042  0.97998974  0.38169198    -0.62300
O2486       O  0.88356150  0.92705408  0.45418802    -0.70700
O2487       O  0.83482354  0.90267992  0.45280842    -0.70200
O2488       O  0.83245445  0.95565163  0.38025752    -0.61500
O2489       O  0.83273900  0.90078990  0.38115771    -0.74000
O2490       O  0.83463871  0.95710959  0.45191532    -0.72800
Cu2491     Cu  0.88406407  0.95447130  0.41783305     1.04600
Cu2492     Cu  0.83197453  0.92820371  0.41668575     1.04300
C2493       C  0.85883043  0.97902033  0.46241629     0.93500
C2494       C  0.85736267  0.90371589  0.37198205     0.92700
C2495       C  0.85702360  0.97737640  0.37072836     0.84800
C2496       C  0.85900764  0.90525601  0.46359065     0.91100
C2497       C  0.69263478  0.55399120  0.33372108     0.03400
C2498       C  0.67031710  0.52952803  0.35040761    -0.12700
C2499       C  0.66994390  0.00273391  0.35108503     0.00900
C2500       C  0.69258988  0.00065548  0.33410565    -0.11300
C2501       C  0.71519472  0.52532293  0.31682348     0.03400
C2502       C  0.71488663  0.55178103  0.31713780    -0.10700
H2503       H  0.65356380  0.53180340  0.36379476     0.09000
H2504       H  0.69253905  0.98010890  0.33418599     0.06500
H2505       H  0.73143562  0.57065080  0.30319816     0.06400
C2506       C  0.69068961  0.66226506  0.33208310     0.03400
C2507       C  0.66849521  0.66441337  0.34891737    -0.12700
C2508       C  0.66852470  0.69104265  0.35005120     0.00900
C2509       C  0.69140084  0.71592626  0.33339495    -0.11300
C2510       C  0.71395683  0.71388806  0.31619254     0.03400
C2511       C  0.71323838  0.68693588  0.31598303    -0.10700
H2512       H  0.65172979  0.64535392  0.36239070     0.09000
H2513       H  0.69169756  0.73659335  0.33390077     0.06500
H2514       H  0.72992086  0.68471555  0.30234927     0.06400
O2515       O  0.59263462  0.71500836  0.45169500    -0.72700
O2516       O  0.64879959  0.71684291  0.38070097    -0.73600
O2517       O  0.59395246  0.71729616  0.38003661    -0.62300
O2518       O  0.64695989  0.71455291  0.45237744    -0.70700
O2519       O  0.62238325  0.66592542  0.45355789    -0.70200
O2520       O  0.56947252  0.66867495  0.38119654    -0.61500
O2521       O  0.62386492  0.66822019  0.38193263    -0.74000
O2522       O  0.56764992  0.66638105  0.45283939    -0.72800
Cu2523     Cu  0.62144873  0.71760357  0.41634610     1.04600
Cu2524     Cu  0.59498722  0.66563521  0.41723620     1.04300
C2525       C  0.57072412  0.69093755  0.46232336     0.93500
C2526       C  0.64576773  0.69228370  0.37127145     0.92700
C2527       C  0.57207836  0.69282225  0.37051679     0.84800
C2528       C  0.64427420  0.69037500  0.46306909     0.91100
O2529       O  0.56791897  0.92640210  0.45287853    -0.72700
O2530       O  0.62492505  0.98076554  0.38230456    -0.73600
O2531       O  0.57014752  0.92585889  0.38129466    -0.62300
O2532       O  0.62289708  0.98159489  0.45380774    -0.70700
O2533       O  0.64710087  0.95731574  0.45275815    -0.70200
O2534       O  0.59412920  0.90136834  0.38045060    -0.61500
O2535       O  0.64939497  0.95676569  0.38120872    -0.74000
O2536       O  0.59262642  0.90263131  0.45204487    -0.72800
Cu2537     Cu  0.59562668  0.95447564  0.41739655     1.04600
Cu2538     Cu  0.62165692  0.92869409  0.41676121     1.04300
C2539       C  0.57077186  0.90484657  0.46247632     0.93500
C2540       C  0.64677513  0.97852355  0.37186915     0.92700
C2541       C  0.57247890  0.90412581  0.37076353     0.84800
C2542       C  0.64457027  0.97888861  0.46344504     0.91100
O2543       O  0.76020502  0.73472106  0.21378068    -0.72700
O2544       O  0.81402576  0.79068811  0.28562662    -0.73600
O2545       O  0.75906226  0.73599368  0.28527348    -0.62300
O2546       O  0.81552759  0.78978849  0.21401927    -0.70700
O2547       O  0.79103986  0.81377264  0.21521670    -0.70200
O2548       O  0.73457960  0.75998798  0.28647924    -0.61500
O2549       O  0.78998678  0.81511929  0.28685205    -0.74000
O2550       O  0.73612546  0.75911888  0.21496165    -0.72800
Cu2551     Cu  0.78804328  0.76197416  0.24982916     1.04600
Cu2552     Cu  0.76211372  0.78785290  0.25073792     1.04300
C2553       C  0.73845135  0.73740162  0.20435903     0.93500
C2554       C  0.81170084  0.81237883  0.29632452     0.92700
C2555       C  0.73722541  0.73823591  0.29574339     0.84800
C2556       C  0.81277930  0.81143684  0.20457381     0.91100
C2557       C  0.66625392  0.58158806  0.32472659    -0.21000
C2558       C  0.69231200  0.58180958  0.33310973    -0.09100
C2559       C  0.71777689  0.60859927  0.34093097     0.29800
C2560       C  0.71704926  0.63464152  0.34042572    -0.21000
C2561       C  0.69097902  0.63442607  0.33216504    -0.09100
C2562       C  0.66553361  0.60765596  0.32419465     0.29800
F2563       F  0.64019874  0.60675717  0.31509628    -0.19600
H2564       H  0.64655538  0.56124868  0.31817386     0.18200
H2565       H  0.73674846  0.65495688  0.34704467     0.18200
F2566       F  0.74313064  0.60953664  0.35002174    -0.19600
C2567       C  0.95428927  0.85635977  0.30277543    -0.21000
C2568       C  0.96869742  0.85827584  0.33364146    -0.09100
C2569       C  0.95647039  0.86060819  0.36457795     0.29800
C2570       C  0.93013239  0.86092459  0.36448211    -0.21000
C2571       C  0.91564956  0.85886849  0.33362147    -0.09100
C2572       C  0.92800543  0.85677786  0.30267251     0.29800
F2573       F  0.91500817  0.85585135  0.27236453    -0.19600
H2574       H  0.96368499  0.85497404  0.27867855     0.18200
H2575       H  0.92074823  0.86232080  0.38858074     0.18200
F2576       F  0.96963522  0.86185785  0.39487169    -0.19600
C2577       C  0.74900780  0.77308476  0.01006307    -0.21000
C2578       C  0.74845888  0.74751844  0.49900594    -0.09100
C2579       C  0.77471569  0.74895588  0.48863730     0.29800
C2580       C  0.80103438  0.77574365  0.48906780    -0.21000
C2581       C  0.80152910  0.80134223  0.49995512    -0.09100
C2582       C  0.77534297  0.79980412  0.01074226     0.29800
F2583       F  0.77537927  0.82393813  0.02285981    -0.19600
H2584       H  0.72905186  0.77222617  0.01874952     0.18200
H2585       H  0.82102057  0.77659823  0.48052426     0.18200
F2586       F  0.77481612  0.72464651  0.47741933    -0.19600
C2587       C  0.88326939  0.94066227  0.17598535    -0.21000
C2588       C  0.85812228  0.91451114  0.16593424    -0.09100
C2589       C  0.83279817  0.91505439  0.15570352     0.29800
C2590       C  0.83270458  0.94143060  0.15575060    -0.21000
C2591       C  0.85785899  0.96759819  0.16579634    -0.09100
C2592       C  0.88318419  0.96703693  0.17602179     0.29800
F2593       F  0.90755946  0.99184105  0.18685483    -0.19600
H2594       H  0.90284682  0.94054694  0.18430292     0.18200
H2595       H  0.81312053  0.94153450  0.14743243     0.18200
F2596       F  0.80844886  0.89022998  0.14485297    -0.19600
C2597       C  0.58171476  0.66591941  0.17544026    -0.21000
C2598       C  0.58151731  0.69146954  0.16594237    -0.09100
C2599       C  0.60797870  0.71661519  0.15651453     0.29800
C2600       C  0.63426679  0.71625834  0.15715610    -0.21000
C2601       C  0.63450522  0.69079003  0.16689156    -0.09100
C2602       C  0.60797762  0.66550203  0.17588403     0.29800
F2603       F  0.60752964  0.64065159  0.18590678    -0.19600
H2604       H  0.56158649  0.64643624  0.18297266     0.18200
H2605       H  0.65439020  0.73571777  0.14955387     0.18200
F2606       F  0.60831089  0.74124688  0.14581877    -0.19600
C2607       C  0.55030051  0.80119191  0.51152122    -0.21000
C2608       C  0.52518325  0.80164096  0.00038384    -0.09100
C2609       C  0.00039127  0.77551957  0.98936929     0.29800
C2610       C  0.50068320  0.74927050  0.98985537    -0.21000
C2611       C  0.52574825  0.74878040  0.00105733    -0.09100
C2612       C  0.55063264  0.77493407  0.51188904     0.29800
F2613       F  0.57495017  0.77496181  0.52352761    -0.19600
H2614       H  0.56946613  0.82110044  0.52029638     0.18200
H2615       H  0.98153318  0.72938795  0.98098656     0.18200
F2616       F  0.97622388  0.77554213  0.97727926    -0.19600
C2617       C  0.77573778  0.99999634  0.00818365    -0.21000
C2618       C  0.80168306  0.52554461  0.49862562    -0.09100
C2619       C  0.80070675  0.55090729  0.49003450     0.29800
C2620       C  0.77410356  0.55058471  0.49114310    -0.21000
C2621       C  0.74816046  0.52502618  0.50070000    -0.09100
C2622       C  0.74914662  0.99967152  0.00928831     0.29800
F2623       F  0.72456750  0.97483281  0.01952938    -0.19600
H2624       H  0.77617505  0.98038588  0.01536960     0.18200
H2625       H  0.77365312  0.57019191  0.48397812     0.18200
F2626       F  0.82529620  0.57573868  0.47980142    -0.19600
C2627       C  0.96773446  0.60939929  0.32340359    -0.21000
C2628       C  0.96800173  0.63498087  0.33390555    -0.09100
C2629       C  0.94154218  0.63331457  0.34383625     0.29800
C2630       C  0.91528502  0.60642983  0.34308342    -0.21000
C2631       C  0.91503797  0.58086076  0.33257487    -0.09100
C2632       C  0.94148358  0.58252909  0.32263942     0.29800
F2633       F  0.94180596  0.55836438  0.31131890    -0.19600
H2634       H  0.98785840  0.61034629  0.31525664     0.18200
H2635       H  0.89513865  0.60546503  0.35117060     0.18200
F2636       F  0.94119093  0.65749127  0.35505553    -0.19600
C2637       C  0.58190700  0.94022353  0.17765898    -0.21000
C2638       C  0.58158525  0.91492402  0.16588472    -0.09100
C2639       C  0.60779858  0.91691506  0.15438653     0.29800
C2640       C  0.63400154  0.94380535  0.15520748    -0.21000
C2641       C  0.63437751  0.96905790  0.16722005    -0.09100
C2642       C  0.60809733  0.96715361  0.17834186     0.29800
F2643       F  0.60789527  0.99111940  0.19064614    -0.19600
H2644       H  0.56188595  0.93899574  0.18676217     0.18200
H2645       H  0.65400647  0.94503995  0.14602535     0.18200
F2646       F  0.60790833  0.89305852  0.14155696    -0.19600
C2647       C  0.55375635  0.88662557  0.66560824     0.03400
C2648       C  0.55193906  0.86200117  0.68117944    -0.12700
C2649       C  0.52520700  0.83519334  0.68235230     0.00900
C2650       C  0.00011379  0.83315281  0.66621154    -0.11300
C2651       C  0.00202823  0.85798437  0.64978021     0.03400
C2652       C  0.52889201  0.88458925  0.65036138    -0.10700
H2653       H  0.57132009  0.86429949  0.69378032     0.09000
H2654       H  0.97943296  0.81258765  0.66645152     0.06500
H2655       H  0.53100768  0.90382336  0.63774900     0.06400
C2656       C  0.66232555  0.99722318  0.66787118     0.03400
C2657       C  0.68709234  0.49896069  0.68306065    -0.12700
C2658       C  0.71418025  0.52535389  0.68341743     0.00900
C2659       C  0.71636176  0.55029857  0.66697502    -0.11300
C2660       C  0.69134627  0.54851900  0.65096010     0.03400
C2661       C  0.66443163  0.52193457  0.65230912    -0.10700
H2662       H  0.68477885  0.97963372  0.69564120     0.09000
H2663       H  0.73719695  0.57070274  0.66652151     0.06500
H2664       H  0.64512573  0.51981131  0.63970805     0.06400
C2665       C  0.99598431  0.66323544  0.83415902     0.03400
C2666       C  0.49800993  0.68782970  0.81825833    -0.12700
C2667       C  0.52482572  0.71453500  0.81689498     0.00900
C2668       C  0.54989514  0.71651032  0.83305163    -0.11300
C2669       C  0.54785709  0.69171245  0.84973962     0.03400
C2670       C  0.52083727  0.66522642  0.84947915    -0.10700
H2671       H  0.97871300  0.68557869  0.80551056     0.09000
H2672       H  0.57065416  0.73699648  0.83261796     0.06500
H2673       H  0.51862368  0.64606131  0.86235506     0.06400
C2674       C  0.88709135  0.55259953  0.83215078     0.03400
C2675       C  0.88498281  0.52806462  0.84828068    -0.12700
C2676       C  0.85823462  0.00127612  0.84929979     0.00900
C2677       C  0.83330441  0.99918817  0.83261370    -0.11300
C2678       C  0.83543915  0.52396503  0.81572717     0.03400
C2679       C  0.86240987  0.55050257  0.81626904    -0.10700
H2680       H  0.90417272  0.53042297  0.86141703     0.09000
H2681       H  0.81257666  0.97866351  0.83285511     0.06500
H2682       H  0.86471932  0.56965770  0.80326296     0.06400
O2683       O  0.81506350  0.54960626  0.71263952    -0.72700
O2684       O  0.75977810  0.54800575  0.78477449    -0.73600
O2685       O  0.81395775  0.54714922  0.78431649    -0.62300
O2686       O  0.76051192  0.55054115  0.71316671    -0.70700
O2687       O  0.73569374  0.50191566  0.71425235    -0.70200
O2688       O  0.78930728  0.99853201  0.78536285    -0.61500
O2689       O  0.73464450  0.99938322  0.78591767    -0.74000
O2690       O  0.78987500  0.50098042  0.71362302    -0.72800
Cu2691     Cu  0.78820078  0.55048949  0.74886599     1.04600
Cu2692     Cu  0.76150917  0.99852641  0.74962513     1.04300
C2693       C  0.81181651  0.52501820  0.70295880     0.93500
C2694       C  0.73787074  0.52397868  0.79552854     0.92700
C2695       C  0.81128704  0.52294127  0.79486577     0.84800
C2696       C  0.73841954  0.52617623  0.70381001     0.91100
O2697       O  0.54815589  0.75907818  0.71436860    -0.72700
O2698       O  0.55060892  0.81525038  0.78584588    -0.73600
O2699       O  0.55054138  0.76021070  0.78608110    -0.62300
O2700       O  0.54825353  0.81367839  0.71412120    -0.70700
O2701       O  0.99951934  0.78943775  0.71296283    -0.70200
O2702       O  0.50181164  0.73599167  0.78492929    -0.61500
O2703       O  0.50186924  0.79060742  0.78467228    -0.74000
O2704       O  0.49941655  0.73438627  0.71320017    -0.69200
Cu2705     Cu  0.55105786  0.78788957  0.74996117     1.04600
Cu2706     Cu  0.99897902  0.76176102  0.74907866     1.04300
C2707       C  0.52394922  0.73724895  0.70374928     0.93500
C2708       C  0.52608985  0.81242560  0.79529383     0.92700
C2709       C  0.52598219  0.73850013  0.79566161     0.84800
C2710       C  0.52408008  0.81117368  0.70342242     0.91100
C2711       C  0.82968277  0.52561956  0.49831331     0.03400
C2712       C  0.85437538  0.54813217  0.51443455    -0.12700
C2713       C  0.88103012  0.54818394  0.51543990     0.00900
C2714       C  0.88279926  0.52513820  0.49925147    -0.11300
C2715       C  0.85781505  0.50224811  0.98270264     0.03400
C2716       C  0.83141638  0.50274973  0.98279842    -0.10700
H2717       H  0.85226308  0.56505372  0.52756285     0.09000
H2718       H  0.90327553  0.52495298  0.49964426     0.06500
H2719       H  0.81215060  0.98573314  0.96975635     0.06400
C2720       C  0.72012353  0.52487289  0.00108241     0.03400
C2721       C  0.69543926  0.50225786  0.98509670    -0.12700
C2722       C  0.66862681  0.50188673  0.98445729     0.00900
C2723       C  0.66669783  0.52477289  0.00087417    -0.11300
C2724       C  0.69169743  0.54778885  0.51730320     0.03400
C2725       C  0.71825969  0.54759136  0.51678380    -0.10700
H2726       H  0.69766718  0.98546498  0.97181638     0.09000
H2727       H  0.64610040  0.52471872  0.00078066     0.06500
H2728       H  0.73754850  0.56468331  0.52971284     0.06400
C2729       C  0.52571023  0.72087540  0.50103300     0.03400
C2730       C  0.54816772  0.71885451  0.98479595    -0.12700
C2731       C  0.54794822  0.69216186  0.98345961     0.00900
C2732       C  0.52484989  0.66722517  0.49977093    -0.11300
C2733       C  0.50216277  0.66925128  0.51667427     0.03400
C2734       C  0.50277439  0.69615034  0.51654641    -0.10700
H2735       H  0.56527800  0.73809792  0.97192331     0.09000
H2736       H  0.52452569  0.64654210  0.49930434     0.06500
H2737       H  0.98585638  0.69835739  0.52963512     0.06400
C2738       C  0.52502818  0.82944693  0.00022941     0.03400
C2739       C  0.50222287  0.83123251  0.51590695    -0.12700
C2740       C  0.50185411  0.85763921  0.51634441     0.00900
C2741       C  0.52470311  0.88251348  0.99965798    -0.11300
C2742       C  0.54777055  0.88072305  0.98338296     0.03400
C2743       C  0.54776516  0.85413451  0.98447712    -0.10700
H2744       H  0.98526151  0.81203239  0.52899689     0.09000
H2745       H  0.52456855  0.90296911  0.99940760     0.06500
H2746       H  0.56494181  0.85207596  0.97182863     0.06400
C2747       C  0.55358719  0.69160139  0.66591801     0.03400
C2748       C  0.52878186  0.66879822  0.65028850    -0.12700
C2749       C  0.00192475  0.66837365  0.64984341     0.00900
C2750       C  0.00000580  0.69123082  0.66641308    -0.11300
C2751       C  0.52502163  0.71426585  0.68283031     0.03400
C2752       C  0.55164878  0.71417859  0.68195214    -0.10700
H2753       H  0.53091673  0.65183690  0.63727024     0.09000
H2754       H  0.97936790  0.69109488  0.66652896     0.06500
H2755       H  0.57090580  0.73118129  0.69501554     0.06400
C2756       C  0.66252032  0.69083712  0.66728120     0.03400
C2757       C  0.66468956  0.66851539  0.65102546    -0.12700
C2758       C  0.69138983  0.66862093  0.65016269     0.00900
C2759       C  0.71628914  0.69158120  0.66680709    -0.11300
C2760       C  0.71419339  0.71424775  0.68359303     0.03400
C2761       C  0.68721094  0.71361846  0.68320527    -0.10700
H2762       H  0.64555283  0.65159567  0.63770344     0.09000
H2763       H  0.73699286  0.69184809  0.66662128     0.06500
H2764       H  0.68493622  0.73044912  0.69634693     0.06400
O2765       O  0.66587212  0.62268185  0.54666128    -0.72700
O2766       O  0.66849894  0.56987420  0.61878873    -0.73600
O2767       O  0.66843687  0.62410258  0.61827425    -0.62300
O2768       O  0.66607151  0.56797537  0.54722101    -0.70700
O2769       O  0.71482655  0.59271996  0.54843630    -0.70200
O2770       O  0.71718289  0.64890219  0.61954059    -0.61500
O2771       O  0.71723711  0.59408679  0.62006268    -0.74000
O2772       O  0.71461368  0.64698877  0.54784162    -0.72800
Cu2773     Cu  0.66555605  0.59532308  0.58286519     1.04600
Cu2774     Cu  0.71765969  0.62154025  0.58380965     1.04300
C2775       C  0.69040776  0.64436167  0.53705699     0.93500
C2776       C  0.69264361  0.57244236  0.62965262     0.92700
C2777       C  0.69260533  0.64589328  0.62901056     0.84800
C2778       C  0.69062661  0.57085310  0.53789667     0.91100
C2779       C  0.85840736  0.88673860  0.66638577     0.03400
C2780       C  0.83598199  0.86220998  0.68275519    -0.12700
C2781       C  0.83577656  0.83552204  0.68358338     0.00900
C2782       C  0.85857836  0.83356210  0.66684734    -0.11300
C2783       C  0.88136950  0.85838024  0.64998699     0.03400
C2784       C  0.88111261  0.88486373  0.65054732    -0.10700
H2785       H  0.81910349  0.86441721  0.69592506     0.09000
H2786       H  0.85857249  0.81303682  0.66691324     0.06500
H2787       H  0.89803092  0.90402855  0.63735242     0.06400
C2788       C  0.85758655  0.99539923  0.66539327     0.03400
C2789       C  0.83472708  0.99720305  0.68098319    -0.12700
C2790       C  0.83459927  0.52375311  0.68181079     0.00900
C2791       C  0.85762022  0.54868002  0.66538472    -0.11300
C2792       C  0.88052830  0.54680742  0.64882254     0.03400
C2793       C  0.88024198  0.52007355  0.64943750    -0.10700
H2794       H  0.81762732  0.97795948  0.69387627     0.09000
H2795       H  0.85772972  0.56925801  0.66553613     0.06500
H2796       H  0.89723700  0.51797021  0.63641324     0.06400
O2797       O  0.98188494  0.88326362  0.54671109    -0.72700
O2798       O  0.92601034  0.88125842  0.61813449    -0.73600
O2799       O  0.98037797  0.88093710  0.61832770    -0.62300
O2800       O  0.92711545  0.88357316  0.54652143    -0.70700
O2801       O  0.90264204  0.83494631  0.54771021    -0.70200
O2802       O  0.95600512  0.83231127  0.61948080    -0.61500
O2803       O  0.90116708  0.83263238  0.61940079    -0.74000
O2804       O  0.95702409  0.83462962  0.54784264    -0.72800
Cu2805     Cu  0.95469759  0.88392229  0.58256515     1.04600
Cu2806     Cu  0.92834399  0.83194691  0.58345946     1.04300
C2807       C  0.97888750  0.85874300  0.53721858     0.93500
C2808       C  0.90418975  0.85717493  0.62888006     0.92700
C2809       C  0.97783318  0.85681297  0.62897960     0.84800
C2810       C  0.90526024  0.85909736  0.53703271     0.91100
O2811       O  0.95729978  0.64727565  0.54808446    -0.72700
O2812       O  0.90091034  0.59279079  0.61894238    -0.73600
O2813       O  0.95597869  0.64802851  0.61963335    -0.62300
O2814       O  0.90273120  0.59260006  0.54741054    -0.70700
O2815       O  0.92676215  0.56815361  0.54599206    -0.70200
O2816       O  0.98015192  0.62372776  0.61813869    -0.61500
O2817       O  0.92548259  0.56889288  0.61752408    -0.74000
O2818       O  0.98178814  0.62329189  0.54654360    -0.72800
Cu2819     Cu  0.92838533  0.62099222  0.58339388     1.04600
Cu2820     Cu  0.95439361  0.59518631  0.58218957     1.04300
C2821       C  0.97904645  0.64500310  0.53734551     0.93500
C2822       C  0.90365993  0.57108615  0.62815693     0.92700
C2823       C  0.97772435  0.64532581  0.62897670     0.84800
C2824       C  0.90512324  0.57100084  0.53655111     0.91100
C2825       C  0.72040399  0.71947923  0.99881245     0.03400
C2826       C  0.71837743  0.69480637  0.51435329    -0.12700
C2827       C  0.69151018  0.66824528  0.51586707     0.00900
C2828       C  0.66638263  0.66644560  0.00012279    -0.11300
C2829       C  0.66845526  0.69136378  0.98373233     0.03400
C2830       C  0.69552380  0.71776985  0.98396689    -0.10700
H2831       H  0.73773795  0.69692225  0.52678843     0.09000
H2832       H  0.64556922  0.64601776  0.00064384     0.06500
H2833       H  0.69776678  0.73705276  0.97136115     0.06400
C2834       C  0.82947384  0.82950167  0.00016279     0.03400
C2835       C  0.85433909  0.83138594  0.51522160    -0.12700
C2836       C  0.88113423  0.85803759  0.51622660     0.00900
C2837       C  0.88299371  0.88306037  0.00037544    -0.11300
C2838       C  0.85792007  0.88113289  0.98435003     0.03400
C2839       C  0.83127924  0.85427118  0.98505643    -0.10700
H2840       H  0.85225218  0.81204378  0.52749820     0.09000
H2841       H  0.90362057  0.90368776  0.00048463     0.06500
H2842       H  0.81193750  0.85207292  0.97247184     0.06400
C2843       C  0.99664961  0.85820295  0.83335077     0.03400
C2844       C  0.52141441  0.88076693  0.84932849    -0.12700
C2845       C  0.54823166  0.88106738  0.84983142     0.00900
C2846       C  0.55006822  0.85823059  0.83305386    -0.11300
C2847       C  0.52508069  0.83545106  0.81622978     0.03400
C2848       C  0.99854844  0.83576481  0.81691384    -0.10700
H2849       H  0.51942607  0.89794787  0.86196020     0.09000
H2850       H  0.57062785  0.85820565  0.83305203     0.06500
H2851       H  0.97913725  0.81865762  0.80416771     0.06400
C2852       C  0.88750907  0.85858083  0.83392112     0.03400
C2853       C  0.88530594  0.88075883  0.85056747    -0.12700
C2854       C  0.85863956  0.88080096  0.85120508     0.00900
C2855       C  0.83380504  0.85798133  0.83428947    -0.11300
C2856       C  0.83591247  0.83539737  0.81731248     0.03400
C2857       C  0.86287305  0.83596924  0.81773178    -0.10700
H2858       H  0.90460427  0.89792006  0.86342497     0.09000
H2859       H  0.81314767  0.85781227  0.83431556     0.06500
H2860       H  0.86504813  0.81897469  0.80489461     0.06400
O2861       O  0.88339413  0.98183328  0.95327847    -0.72700
O2862       O  0.88147840  0.92561896  0.88263558    -0.73600
O2863       O  0.88118042  0.97998975  0.88169203    -0.62300
O2864       O  0.88356152  0.92705406  0.95418800    -0.70700
O2865       O  0.83482356  0.90267989  0.95280837    -0.70200
O2866       O  0.83245446  0.95565160  0.88025752    -0.61500
O2867       O  0.83273902  0.90078990  0.88115768    -0.74000
O2868       O  0.83463877  0.95710959  0.95191538    -0.72800
Cu2869     Cu  0.88406412  0.95447130  0.91783308     1.04600
Cu2870     Cu  0.83197458  0.92820371  0.91668576     1.04300
C2871       C  0.85883046  0.97902033  0.96241634     0.93500
C2872       C  0.85736269  0.90371591  0.87198202     0.92700
C2873       C  0.85702359  0.97737640  0.87072840     0.84800
C2874       C  0.85900765  0.90525598  0.96359061     0.91100
C2875       C  0.69263479  0.55399120  0.83372105     0.03400
C2876       C  0.67031697  0.52952805  0.85040776    -0.12700
C2877       C  0.66994393  0.00273388  0.85108503     0.00900
C2878       C  0.69258990  0.00065567  0.83410565    -0.11300
C2879       C  0.71519471  0.52532294  0.81682346     0.03400
C2880       C  0.71488658  0.55178097  0.81713776    -0.10700
H2881       H  0.65356445  0.53180337  0.86379438     0.09000
H2882       H  0.69253905  0.98010787  0.83418601     0.06500
H2883       H  0.73143562  0.57065081  0.80319801     0.06400
C2884       C  0.69068979  0.66226515  0.83208307     0.03400
C2885       C  0.66849521  0.66441329  0.84891761    -0.12700
C2886       C  0.66852480  0.69104269  0.85005116     0.00900
C2887       C  0.69140088  0.71592652  0.83339488    -0.11300
C2888       C  0.71395693  0.71388805  0.81619246     0.03400
C2889       C  0.71323829  0.68693595  0.81598309    -0.10700
H2890       H  0.65173073  0.64535483  0.86239036     0.09000
H2891       H  0.69169757  0.73659240  0.83390057     0.06500
H2892       H  0.72992160  0.68471550  0.80234856     0.06400
O2893       O  0.59263468  0.71500838  0.95169503    -0.72700
O2894       O  0.64879961  0.71684295  0.88070088    -0.73600
O2895       O  0.59395243  0.71729612  0.88003660    -0.62300
O2896       O  0.64696000  0.71455300  0.95237734    -0.70700
O2897       O  0.62238327  0.66592551  0.95355795    -0.70200
O2898       O  0.56947254  0.66867492  0.88119651    -0.61500
O2899       O  0.62386503  0.66822023  0.88193268    -0.74000
O2900       O  0.56764995  0.66638107  0.95283932    -0.72800
Cu2901     Cu  0.62144875  0.71760358  0.91634607     1.04600
Cu2902     Cu  0.59498727  0.66563523  0.91723619     1.04300
C2903       C  0.57072416  0.69093753  0.96232336     0.93500
C2904       C  0.64576781  0.69228378  0.87127143     0.92700
C2905       C  0.57207835  0.69282220  0.87051677     0.84800
C2906       C  0.64427427  0.69037510  0.96306907     0.91100
O2907       O  0.56791902  0.92640209  0.95287855    -0.72700
O2908       O  0.62492508  0.98076554  0.88230455    -0.73600
O2909       O  0.57014751  0.92585886  0.88129466    -0.62300
O2910       O  0.62289711  0.98159481  0.95380770    -0.70700
O2911       O  0.64710087  0.95731562  0.95275816    -0.70200
O2912       O  0.59412923  0.90136835  0.88045056    -0.61500
O2913       O  0.64939501  0.95676569  0.88120870    -0.74000
O2914       O  0.59262642  0.90263123  0.95204478    -0.72800
Cu2915     Cu  0.59562670  0.95447562  0.91739654     1.04600
Cu2916     Cu  0.62165694  0.92869405  0.91676117     1.04300
C2917       C  0.57077188  0.90484652  0.96247628     0.93500
C2918       C  0.64677516  0.97852357  0.87186915     0.92700
C2919       C  0.57247891  0.90412579  0.87076352     0.84800
C2920       C  0.64457028  0.97888852  0.96344503     0.91100
O2921       O  0.76020499  0.73472108  0.71378072    -0.72700
O2922       O  0.81402580  0.79068815  0.78562661    -0.73600
O2923       O  0.75906233  0.73599375  0.78527348    -0.62300
O2924       O  0.81552759  0.78978851  0.71401923    -0.70700
O2925       O  0.79103983  0.81377263  0.71521664    -0.70200
O2926       O  0.73457965  0.75998802  0.78647924    -0.61500
O2927       O  0.78998682  0.81511932  0.78685199    -0.74000
O2928       O  0.73612541  0.75911888  0.71496168    -0.72800
Cu2929     Cu  0.78804331  0.76197420  0.74982916     1.04600
Cu2930     Cu  0.76211373  0.78785291  0.75073791     1.04300
C2931       C  0.73845130  0.73740162  0.70435906     0.93500
C2932       C  0.81170086  0.81237888  0.79632450     0.92700
C2933       C  0.73722545  0.73823598  0.79574336     0.84800
C2934       C  0.81277929  0.81143684  0.70457376     0.91100
C2935       C  0.66625369  0.58158788  0.82472674    -0.21000
C2936       C  0.69231203  0.58180962  0.83310974    -0.09100
C2937       C  0.71777695  0.60859928  0.84093077     0.29800
C2938       C  0.71704939  0.63464158  0.84042553    -0.21000
C2939       C  0.69097908  0.63442611  0.83216502    -0.09100
C2940       C  0.66553363  0.60765603  0.82419489     0.29800
F2941       F  0.64019868  0.60675722  0.81509679    -0.19600
H2942       H  0.64655607  0.56124950  0.81817452     0.18200
H2943       H  0.73674849  0.65495682  0.84704434     0.18200
F2944       F  0.74313073  0.60953664  0.85002136    -0.19600
C2945       C  0.95428925  0.85635981  0.80277546    -0.21000
C2946       C  0.96869742  0.85827585  0.83364140    -0.09100
C2947       C  0.95647038  0.86060818  0.86457787     0.29800
C2948       C  0.93013230  0.86092460  0.86448223    -0.21000
C2949       C  0.91564959  0.85886853  0.83362137    -0.09100
C2950       C  0.92800546  0.85677792  0.80267242     0.29800
F2951       F  0.91500823  0.85585144  0.77236443    -0.19600
H2952       H  0.96368515  0.85497401  0.77867811     0.18200
H2953       H  0.92074849  0.86232070  0.88857990     0.18200
F2954       F  0.96963514  0.86185777  0.89487165    -0.19600
C2955       C  0.74900777  0.77308472  0.51006321    -0.21000
C2956       C  0.74845893  0.74751846  0.99900598    -0.09100
C2957       C  0.77471578  0.74895591  0.98863748     0.29800
C2958       C  0.80103444  0.77574368  0.98906798    -0.21000
C2959       C  0.80152912  0.80134227  0.99995521    -0.09100
C2960       C  0.77534300  0.79980408  0.51074239     0.29800
F2961       F  0.77537935  0.82393806  0.52286015    -0.19600
H2962       H  0.72905202  0.77222614  0.51874970     0.18200
H2963       H  0.82102067  0.77659828  0.98052453     0.18200
F2964       F  0.77481626  0.72464651  0.97741969    -0.19600
C2965       C  0.88326942  0.94066233  0.67598548    -0.21000
C2966       C  0.85812234  0.91451120  0.66593434    -0.09100
C2967       C  0.83279827  0.91505445  0.65570355     0.29800
C2968       C  0.83270444  0.94143066  0.65575055    -0.21000
C2969       C  0.85785908  0.96759825  0.66579644    -0.09100
C2970       C  0.88318423  0.96703699  0.67602191     0.29800
F2971       F  0.90755950  0.99184112  0.68685495    -0.19600
H2972       H  0.90284692  0.94054699  0.68430309     0.18200
H2973       H  0.81312143  0.94153456  0.64743275     0.18200
F2974       F  0.80844898  0.89023006  0.64485288    -0.19600
C2975       C  0.58171478  0.66591950  0.67544023    -0.21000
C2976       C  0.58151730  0.69146957  0.66594226    -0.09100
C2977       C  0.60797871  0.71661522  0.65651437     0.29800
C2978       C  0.63426671  0.71625829  0.65715608    -0.21000
C2979       C  0.63450521  0.69079009  0.66689158    -0.09100
C2980       C  0.60797759  0.66550208  0.67588406     0.29800
F2981       F  0.60752961  0.64065166  0.68590689    -0.19600
H2982       H  0.56158637  0.64643623  0.68297272     0.18200
H2983       H  0.65439055  0.73571812  0.64955370     0.18200
F2984       F  0.60831086  0.74124684  0.64581847    -0.19600
C2985       C  0.55030048  0.80119184  0.01152109    -0.21000
C2986       C  0.52518331  0.80164104  0.50038390    -0.09100
C2987       C  0.00039141  0.77551967  0.48936925     0.29800
C2988       C  0.50068332  0.74927061  0.48985531    -0.21000
C2989       C  0.52574833  0.74878049  0.50105738    -0.09100
C2990       C  0.55063261  0.77493399  0.01188889     0.29800
F2991       F  0.57495018  0.77496173  0.02352732    -0.19600
H2992       H  0.56946609  0.82110035  0.02029615     0.18200
H2993       H  0.98153339  0.72938810  0.48098647     0.18200
F2994       F  0.97622406  0.77554228  0.47727912    -0.19600
C2995       C  0.77573768  0.99999634  0.50818354    -0.21000
C2996       C  0.80168312  0.52554468  0.99862559    -0.09100
C2997       C  0.80070679  0.55090736  0.99003448     0.29800
C2998       C  0.77410360  0.55058462  0.99114317    -0.21000
C2999       C  0.74816051  0.52502624  0.00069998    -0.09100
C3000       C  0.74914655  0.99967152  0.50928828     0.29800
F3001       F  0.72456744  0.97483285  0.51952944    -0.19600
H3002       H  0.77617493  0.98038564  0.51536954     0.18200
H3003       H  0.77365313  0.57019251  0.98397795     0.18200
F3004       F  0.82529623  0.57573871  0.97980136    -0.19600
C3005       C  0.96773445  0.60939936  0.82340345    -0.21000
C3006       C  0.96800171  0.63498090  0.83390564    -0.09100
C3007       C  0.94154220  0.63331460  0.84383652     0.29800
C3008       C  0.91528503  0.60642987  0.84308370    -0.21000
C3009       C  0.91503795  0.58086081  0.83257497    -0.09100
C3010       C  0.94148351  0.58252917  0.82263934     0.29800
F3011       F  0.94180589  0.55836448  0.81131872    -0.19600
H3012       H  0.98785815  0.61034637  0.81525641     0.18200
H3013       H  0.89513873  0.60546506  0.85117100     0.18200
F3014       F  0.94119101  0.65749131  0.85505593    -0.19600
C3015       C  0.58190695  0.94022349  0.67765898    -0.21000
C3016       C  0.58158526  0.91492397  0.66588474    -0.09100
C3017       C  0.60779860  0.91691503  0.65438660     0.29800
C3018       C  0.63400158  0.94380533  0.65520754    -0.21000
C3019       C  0.63437750  0.96905788  0.66722010    -0.09100
C3020       C  0.60809730  0.96715358  0.67834184     0.29800
F3021       F  0.60789519  0.99111937  0.69064604    -0.19600
H3022       H  0.56188607  0.93899571  0.68676204     0.18200
H3023       H  0.65400635  0.94503993  0.64602551     0.18200
F3024       F  0.60790839  0.89305850  0.64155701    -0.19600
loop_ 
_geom_bond_atom_site_label_1 
_geom_bond_atom_site_label_2 
_geom_bond_distance 
_geom_bond_site_symmetry_2 
_ccdc_geom_bond_type 
C1            C2   1.395       .  A
C1            C6   1.392       .  A
C1          C370   1.473       .  S
C2            C3   1.405       .  A
C2            H7   1.083       .  S
C3         C1516   1.418       .  A
C3           C64   1.489       .  S
C4            C5   1.417       .  A
C4         C1515   1.418       .  A
C4            H8   1.082       .  S
C5         C1518   1.403       .  A
C5          C163   1.486       .  S
C6         C1517   1.403       .  A
C6            H9   1.083       .  S
C10         C767   1.393       .  A
C10         C771   1.393       .  A
C10         C373   1.472       .  S
C11          C12   1.403   1_565  A
C11         C766   1.393       .  A
C11         H772   1.083       .  S
C12          C13   1.417       .  A
C12          C50   1.487       .  S
C13          C14   1.418       .  A
C13          H17   1.082       .  S
C14          C15   1.405       .  A
C14         C130   1.486       .  S
C15         C766   1.393   1_545  A
C15          H18   1.083       .  S
H16         C767   1.083       .  S
C19        C1532   1.395       .  A
C19        C1536   1.394       .  A
C19         C360   1.475       .  S
C20          C21   1.405   1_655  A
C20        C1531   1.395       .  A
C20        H1537   1.083       .  S
C21          C22   1.419       .  A
C21          C63   1.489       .  S
C22          C23   1.418       .  A
C22          H26   1.082       .  S
C23          C24   1.404       .  A
C23         C259   1.488       .  S
C24        C1531   1.394   1_455  A
C24          H27   1.083       .  S
H25        C1532   1.083       .  S
C28          C29   1.394       .  A
C28          C33   1.393       .  A
C28         C363   1.475       .  S
C29         C786   1.405       .  A
C29          H34   1.083       .  S
C30          C31   1.419       .  A
C30         C785   1.405       .  A
C30         C227   1.490       .  S
C31         C788   1.419       .  A
C31          H35   1.082       .  S
C32          C33   1.404       .  A
C32         C787   1.419   1_545  A
C32          C49   1.488       .  S
C33          H36   1.083       .  S
O37         Cu45   2.020       .  S
O37          C47   1.277       .  A
O38         Cu45   2.009       .  S
O38          C48   1.281       .  A
O39         Cu45   2.009       .  S
O39          C49   1.281       .  A
O40         Cu45   2.020       .  S
O40          C50   1.277       .  A
O41        Cu802   2.010   1_545  S
O41          C50   1.281       .  A
O42         Cu46   2.024       .  S
O42         C805   1.277       .  A
O43         Cu46   2.022       .  S
O43         C804   1.277       .  A
O44        Cu802   2.010   1_545  S
O44          C47   1.281       .  A
Cu45       Cu802   2.368   1_545  S
Cu46        O797   2.010       .  S
Cu46        O800   2.010       .  S
Cu46       Cu801   2.368       .  S
C47         C144   1.487       .  S
C48         C233   1.487       .  S
C48         O799   1.277   1_545  A
C49         O798   1.277   1_545  A
O51         Cu59   2.009       .  S
O51          C61   1.281       .  A
O52         Cu59   2.022       .  S
O52          C62   1.277       .  A
O53         Cu59   2.024       .  S
O53          C63   1.277       .  A
O54         Cu59   2.012       .  S
O54          C64   1.281       .  A
O55         Cu60   2.024       .  S
O55        C1576   1.277       .  A
O56       Cu1572   2.012   1_455  S
O56          C63   1.281       .  A
O57       Cu1572   2.011   1_455  S
O57          C62   1.281       .  A
O58       Cu1572   2.022       .  S
O58          C61   1.277   1_655  A
Cu59      Cu1572   2.367   1_455  S
Cu60       O1568   2.012       .  S
Cu60       O1569   2.011       .  S
Cu60       O1570   2.022       .  S
Cu60      Cu1571   2.367       .  S
C61         C105   1.487       .  S
C62         C201   1.488       .  S
C64        O1567   1.277   1_455  A
C65          C66   1.392   1_556  A
C65         C448   1.394       .  A
C65         C728   1.472       .  S
C66          C67   1.402       .  A
C66          H71   1.083       .  S
C67          C68   1.415   1_554  A
C67         C178   1.482       .  S
C68         C447   1.415       .  A
C68          H72   1.083       .  S
C69          C70   1.403       .  A
C69         C446   1.415       .  A
C69         C981   1.483   1_545  S
C70         C443   1.394       .  A
C70         H829   1.084   1_545  S
H73         C826   1.084       .  S
C74          C75   1.392       .  A
C74         C457   1.393       .  A
C74         C353   1.472       .  S
C75          C76   1.402       .  A
C75         H836   1.083   1_545  S
C76          C77   1.415       .  A
C76        C1030   1.483   1_545  S
C77         C456   1.416       .  A
C77          H81   1.083       .  S
C78          C79   1.404       .  A
C78         C455   1.416       .  A
C78         C132   1.484       .  S
C79         C452   1.393       .  A
C79          H82   1.084       .  S
H80         C831   1.083       .  S
C83          C88   1.394       .  A
C83         C462   1.393   1_554  A
C83         C343   1.471       .  S
C84          C85   1.404       .  A
C84         C461   1.393       .  A
C84          H89   1.084       .  S
C85         C464   1.416       .  A
C85         C257   1.485       .  S
C86          C87   1.416   1_556  A
C86         C463   1.416       .  A
C86          H90   1.083       .  S
C87          C88   1.403       .  A
C87        C1687   1.485   1_455  S
C88        H1603   1.084   1_455  S
H91        C1600   1.084       .  S
C92          C97   1.393       .  A
C92         C471   1.393       .  A
C92         C718   1.471       .  S
C93          C94   1.403       .  A
C93         C470   1.393       .  A
C93        H1610   1.084   1_455  S
C94         C473   1.416   1_554  A
C94        C1673   1.485   1_455  S
C95          C96   1.416       .  A
C95         C472   1.416       .  A
C95          H99   1.083       .  S
C96          C97   1.403       .  A
C96         C271   1.485       .  S
C97         H100   1.084       .  S
H98        C1605   1.084       .  S
C101        C102   1.393       .  A
C101        C106   1.394       .  A
C101        C330   1.474       .  S
C102       C1615   1.403       .  A
C102        H107   1.083       .  S
C103        C104   1.417       .  A
C103       C1614   1.403       .  A
C103        C177   1.484       .  S
C104       C1617   1.417       .  A
C104        H108   1.083       .  S
C105        C106   1.404       .  A
C105       C1616   1.417       .  A
C106        H109   1.084       .  S
C110        C111   1.393       .  A
C110        C115   1.394       .  A
C110        C333   1.473       .  S
C111        C112   1.403       .  A
C111        H116   1.084       .  S
C112        C113   1.416       .  A
C112        C131   1.484       .  S
C113        C114   1.416       .  A
C113        H117   1.083       .  S
C114        C115   1.404       .  A
C114        C285   1.486       .  S
C115        H118   1.083       .  S
O119       Cu127   2.018       .  S
O119        C129   1.276       .  A
O120       Cu127   2.005       .  S
O120        C130   1.281       .  A
O121       Cu127   2.003       .  S
O121        C131   1.281       .  A
O122       Cu127   2.016       .  S
O122        C132   1.277       .  A
O123       Cu128   2.005       .  S
O123        C132   1.281       .  A
O124       Cu128   2.018       .  S
O124        C131   1.277       .  A
O125       Cu128   2.021       .  S
O125        C130   1.277       .  A
O126       Cu128   2.008       .  S
O126        C129   1.281       .  A
Cu127      Cu128   2.368       .  S
C129        C181   1.486       .  S
C133        C134   1.393       .  A
C133        C138   1.394       .  A
C133        C320   1.473       .  S
C134        C135   1.403       .  A
C134        H139   1.083       .  S
C135        C136   1.416       .  A
C135        C288   1.486       .  S
C136        C137   1.417       .  A
C136        H140   1.083       .  S
C137        C138   1.404       .  A
C137        C162   1.486       .  S
C138        H141   1.084       .  S
C142        C143   1.395       .  A
C142        C903   1.394       .  A
C142        C323   1.474       .  S
C143        C900   1.405       .  A
C143        H148   1.084       .  S
C144        C145   1.417       .  A
C144        C899   1.405   1_545  A
C145        C146   1.416       .  A
C145        H149   1.083       .  S
C146        C147   1.403       .  A
C146        C176   1.486       .  S
C147        C898   1.394   1_545  A
C147        H150   1.083       .  S
O151       Cu159   2.018       .  S
O151        C161   1.277       .  A
O152       Cu159   2.007       .  S
O152        C162   1.281       .  A
O153       Cu159   2.006       .  S
O153        C163   1.281       .  A
O154       Cu159   2.017       .  S
O154        C164   1.276       .  A
O155       Cu160   2.007       .  S
O155        C164   1.281       .  A
O156       Cu160   2.019       .  S
O156        C163   1.277       .  A
O157       Cu160   2.020       .  S
O157        C162   1.277       .  A
O158       Cu160   2.008       .  S
O158        C161   1.281       .  A
Cu159      Cu160   2.368       .  S
C161       C1606   1.485       .  S
C164        C190   1.485       .  S
O165       Cu173   2.007       .  S
O165        C175   1.281       .  A
O166       Cu173   2.019       .  S
O166        C176   1.277       .  A
O167       Cu173   2.015       .  S
O167        C177   1.276       .  A
O168       Cu173   2.001       .  S
O168        C178   1.280       .  A
O169       Cu174   2.015       .  S
O169        C178   1.276       .  A
O170       Cu174   2.005       .  S
O170        C177   1.281       .  A
O171       Cu174   2.008       .  S
O171        C176   1.281       .  A
O172       Cu174   2.019       .  S
O172        C175   1.277       .  A
Cu173      Cu174   2.369       .  S
C175       C1599   1.485       .  S
C179        C184   1.393       .  A
C179        C558   1.392       .  A
C179        C310   1.472       .  S
C180        C181   1.403       .  A
C180        C557   1.392   1_554  A
C180        H185   1.083       .  S
C181        C560   1.418       .  A
C182        C183   1.418       .  A
C182        C559   1.418       .  A
C182        H186   1.082       .  S
C183        C184   1.403       .  A
C183        C260   1.486       .  S
C184        H187   1.083       .  S
C188        C193   1.394       .  A
C188        C567   1.392       .  A
C188        C313   1.472       .  S
C189        C190   1.403       .  A
C189        C566   1.392       .  A
C189        H194   1.083       .  S
C190        C569   1.417       .  A
C191        C192   1.418       .  A
C191        C568   1.417       .  A
C191        H195   1.082       .  S
C192        C193   1.404       .  A
C192        C228   1.487       .  S
C193        H196   1.083       .  S
C197        C202   1.394       .  A
C197       C1710   1.393       .  A
C197        C300   1.473       .  S
C198        C199   1.404       .  A
C198       C1709   1.393   1_455  A
C198        H203   1.083       .  S
C199        C200   1.417       .  A
C199        C273   1.487       .  S
C200        C201   1.418       .  A
C200        H204   1.083       .  S
C201       C1714   1.405   1_455  A
C202       C1713   1.405       .  A
C202        H205   1.084       .  S
C206        C207   1.394       .  A
C206        C211   1.394       .  A
C206        C303   1.474       .  S
C207        C208   1.405       .  A
C207        H212   1.084       .  S
C208        C209   1.417       .  A
C208        C226   1.486       .  S
C209        C210   1.416       .  A
C209        H213   1.083       .  S
C210        C211   1.404       .  A
C210        C286   1.486       .  S
C211        H214   1.083       .  S
O215       Cu223   2.014       .  S
O215        C225   1.276       .  A
O216       Cu223   2.005       .  S
O216        C226   1.280       .  A
O217       Cu223   2.012       .  S
O217        C227   1.282       .  A
O218       Cu223   2.021       .  S
O218        C228   1.277       .  A
O219       Cu224   2.011       .  S
O219        C228   1.281       .  A
O220       Cu224   2.025       .  S
O220        C227   1.277       .  A
O221       Cu224   2.021       .  S
O221        C226   1.277       .  A
O222       Cu224   2.007       .  S
O222        C225   1.281       .  A
Cu223      Cu224   2.368       .  S
C225        C825   1.483       .  S
C229        C230   1.395       .  A
C229        C234   1.395       .  A
C229        C290   1.477       .  S
C230        C987   1.404       .  A
C230        H235   1.083       .  S
C231        C232   1.417       .  A
C231        C986   1.404       .  A
C231        C272   1.488       .  S
C232        C989   1.417       .  A
C232        H236   1.083       .  S
C233        C234   1.404       .  A
C233        C988   1.417       .  A
C234        H237   1.084       .  S
C238        C239   1.395       .  A
C238        C243   1.394       .  A
C238        C293   1.477       .  S
C239        C240   1.405       .  A
C239        H244   1.084       .  S
C240        C241   1.417       .  A
C240        C258   1.486       .  S
C241        C242   1.416       .  A
C241        H245   1.083       .  S
C242        C243   1.403       .  A
C242        C287   1.486       .  S
C243        H246   1.083       .  S
O247       Cu255   2.007       .  S
O247        C257   1.281       .  A
O248       Cu255   2.020       .  S
O248        C258   1.277       .  A
O249       Cu255   2.022       .  S
O249        C259   1.277       .  A
O250       Cu255   2.009       .  S
O250        C260   1.281       .  A
O251       Cu256   2.019       .  S
O251        C260   1.277       .  A
O252       Cu256   2.009       .  S
O252        C259   1.281       .  A
O253       Cu256   2.008       .  S
O253        C258   1.281       .  A
O254       Cu256   2.018       .  S
O254        C257   1.277       .  A
Cu255      Cu256   2.368       .  S
O261       Cu269   2.019       .  S
O261        C271   1.277       .  A
O262       Cu269   2.009       .  S
O262        C272   1.281       .  A
O263       Cu269   2.007       .  S
O263        C273   1.281       .  A
O264       Cu269   2.015       .  S
O264        C274   1.276       .  A
O265       Cu270   2.003       .  S
O265        C274   1.281       .  A
O266       Cu270   2.021       .  S
O266        C273   1.277       .  A
O267       Cu270   2.022       .  S
O267        C272   1.277       .  A
O268       Cu270   2.005       .  S
O268        C271   1.281       .  A
Cu269      Cu270   2.368       .  S
C274        C832   1.483       .  S
O275       Cu283   2.018       .  S
O275        C285   1.277       .  A
O276       Cu283   2.008       .  S
O276        C286   1.281       .  A
O277       Cu283   2.007       .  S
O277        C287   1.281       .  A
O278       Cu283   2.019       .  S
O278        C288   1.277       .  A
O279       Cu284   2.007       .  S
O279        C288   1.281       .  A
O280       Cu284   2.019       .  S
O280        C287   1.277       .  A
O281       Cu284   2.021       .  S
O281        C286   1.277       .  A
O282       Cu284   2.008       .  S
O282        C285   1.281       .  A
Cu283      Cu284   2.368       .  S
C289        C290   1.404       .  A
C289        C294   1.395       .  A
C289        H296   1.081       .  S
C290        C291   1.406       .  A
C291        C292   1.394       .  A
C291        F298   1.358       .  S
C292        C293   1.404       .  A
C292        H297   1.081       .  S
C293        C294   1.406       .  A
C294        F295   1.358       .  S
C299        C300   1.402       .  A
C299        C304   1.395       .  A
C299        H306   1.085       .  S
C300        C301   1.406       .  A
C301        C302   1.395       .  A
C301        F308   1.358       .  S
C302        C303   1.403       .  A
C302        H307   1.085       .  S
C303        C304   1.406       .  A
C304        F305   1.358       .  S
C309        C314   1.392       .  A
C309        C688   1.403   1_554  A
C309        H316   1.083       .  S
C310        C311   1.406       .  A
C310        C687   1.403       .  A
C311        C312   1.393       .  A
C311        F318   1.358       .  S
C312        C313   1.404       .  A
C312        H317   1.083       .  S
C313        C692   1.405       .  A
C314        C691   1.405   1_554  A
C314        F315   1.357       .  S
C319        C320   1.402       .  A
C319        C324   1.394       .  A
C319        H326   1.084       .  S
C320        C321   1.406       .  A
C321        C322   1.394       .  A
C321        F328   1.358       .  S
C322        C323   1.403       .  A
C322        H327   1.083       .  S
C323        C324   1.406       .  A
C324        F325   1.358       .  S
C329        C330   1.404       .  A
C329        C334   1.394       .  A
C329        H336   1.081       .  S
C330        C331   1.405       .  A
C331        C332   1.394       .  A
C331        F338   1.358       .  S
C332        C333   1.403       .  A
C332        H337   1.081       .  S
C333        C334   1.406       .  A
C334        F335   1.358       .  S
C339        C344   1.394       .  A
C339        C718   1.403       .  A
C339        H346   1.081       .  S
C340        C717   1.403       .  A
C340       C1853   1.404   1_554  A
C340        C470   1.471       .  S
C341       C1852   1.404   1_556  A
C341       C1854   1.393       .  A
C341        F348   1.358       .  S
C342        C343   1.403   1_556  A
C342       C1853   1.393       .  A
C342       H1859   1.081   1_455  S
C343        C722   1.405       .  A
C344        C721   1.405       .  A
C344        F345   1.358       .  S
H347       C1854   1.081       .  S
C349        C354   1.392       .  A
C349       C1484   1.402   1_554  A
C349        H356   1.084       .  S
C350        C351   1.406       .  A
C350       C1483   1.402   1_545  A
C350        C443   1.472       .  S
C351        C352   1.393       .  A
C351        F358   1.358       .  S
C352        C353   1.403       .  A
C352        H357   1.084       .  S
C353       C1488   1.406   1_545  A
C354       C1487   1.406       .  A
C354        F355   1.358       .  S
C359        C360   1.404       .  A
C359        C364   1.394       .  A
C359        H366   1.083       .  S
C360        C361   1.406       .  A
C361        C362   1.395       .  A
C361        F368   1.358       .  S
C362        C363   1.404       .  A
C362        H367   1.083       .  S
C363        C364   1.405       .  A
C364        F365   1.358       .  S
C369        C370   1.404       .  A
C369        C374   1.394       .  A
C369        H376   1.083       .  S
C370        C371   1.404       .  A
C371        C372   1.394       .  A
C371        F378   1.357       .  S
C372        C373   1.403       .  A
C372        H377   1.083       .  S
C373        C374   1.405       .  A
C374        F375   1.358       .  S
C379        C380   1.395       .  A
C379        C384   1.392       .  A
C379        C748   1.473       .  S
C380        C381   1.405       .  A
C380        H385   1.083       .  S
C381       C1894   1.418       .  A
C381        C442   1.489       .  S
C382       C1893   1.418       .  A
C382        C383   1.417       .  A
C382        H386   1.082       .  S
C383       C1896   1.403       .  A
C383        C541   1.486       .  S
C384       C1895   1.403       .  A
C384        H387   1.083       .  S
C388       C1145   1.393       .  A
C388       C1149   1.393       .  A
C388        C751   1.472       .  S
C389       C1144   1.393       .  A
C389        C390   1.403   1_565  A
C389       H1150   1.083       .  S
C390        C391   1.417       .  A
C390        C428   1.487       .  S
C391        C392   1.418       .  A
C391        H395   1.082       .  S
C392        C393   1.405       .  A
C392        C508   1.486       .  S
C393       C1144   1.393   1_545  A
C393        H396   1.083       .  S
H394       C1145   1.083       .  S
C397       C1910   1.395       .  A
C397       C1914   1.394       .  A
C397        C738   1.475       .  S
C398       C1909   1.395       .  A
C398        C399   1.405   1_655  A
C398       H1915   1.083       .  S
C399        C400   1.419       .  A
C399        C441   1.489       .  S
C400        C401   1.418       .  A
C400        H404   1.082       .  S
C401        C402   1.404       .  A
C401        C637   1.488       .  S
C402       C1909   1.394   1_455  A
C402        H405   1.083       .  S
H403       C1910   1.083       .  S
C406        C407   1.394       .  A
C406        C411   1.393       .  A
C406        C741   1.475       .  S
C407       C1164   1.405       .  A
C407        H412   1.083       .  S
C408       C1163   1.405       .  A
C408        C409   1.419       .  A
C408        C605   1.490       .  S
C409       C1166   1.419       .  A
C409        H413   1.082       .  S
C410       C1165   1.419   1_545  A
C410        C411   1.404       .  A
C410        C427   1.488       .  S
C411        H414   1.083       .  S
O415       Cu423   2.020       .  S
O415        C425   1.277       .  A
O416       Cu423   2.009       .  S
O416        C426   1.281       .  A
O417       Cu423   2.009       .  S
O417        C427   1.281       .  A
O418       Cu423   2.020       .  S
O418        C428   1.277       .  A
O419      Cu1180   2.010   1_545  S
O419        C428   1.281       .  A
O420       Cu424   2.024       .  S
O420       C1183   1.277       .  A
O421       Cu424   2.022       .  S
O421       C1182   1.277       .  A
O422      Cu1180   2.010   1_545  S
O422        C425   1.281       .  A
Cu423     Cu1180   2.368   1_545  S
Cu424      O1175   2.010       .  S
Cu424      O1178   2.010       .  S
Cu424     Cu1179   2.368       .  S
C425        C522   1.487       .  S
C426        C611   1.487       .  S
C426       O1177   1.277   1_545  A
C427       O1176   1.277   1_545  A
O429       Cu437   2.009       .  S
O429        C439   1.281       .  A
O430       Cu437   2.022       .  S
O430        C440   1.277       .  A
O431       Cu437   2.024       .  S
O431        C441   1.277       .  A
O432       Cu437   2.012       .  S
O432        C442   1.281       .  A
O433       Cu438   2.024       .  S
O433       C1954   1.277       .  A
O434      Cu1950   2.012   1_455  S
O434        C441   1.281       .  A
O435      Cu1950   2.011   1_455  S
O435        C440   1.281       .  A
O436      Cu1950   2.022       .  S
O436        C439   1.277   1_655  A
Cu437     Cu1950   2.367   1_455  S
Cu438      O1946   2.012       .  S
Cu438      O1947   2.011       .  S
Cu438      O1948   2.022       .  S
Cu438     Cu1949   2.367       .  S
C439        C483   1.487       .  S
C440        C579   1.488       .  S
C442       O1945   1.277   1_455  A
C443        C444   1.392       .  A
C444        C445   1.402       .  A
C444        H449   1.083       .  S
C445        C446   1.415       .  A
C445        C556   1.482       .  S
C446        H450   1.083       .  S
C447        C448   1.403       .  A
C447       C1359   1.483   1_545  S
C448       H1207   1.084   1_545  S
H451       C1204   1.084       .  S
C452        C453   1.392   1_554  A
C452        C731   1.472       .  S
C453        C454   1.402       .  A
C453       H1214   1.083   1_545  S
C454        C455   1.415   1_556  A
C454       C1408   1.483   1_545  S
C455        H459   1.083       .  S
C456        C457   1.404       .  A
C456        C510   1.484       .  S
C457        H460   1.084       .  S
H458       C1209   1.083       .  S
C461        C466   1.394       .  A
C461        C721   1.471       .  S
C462        C463   1.404       .  A
C462        H467   1.084       .  S
C463        C635   1.485       .  S
C464        C465   1.416       .  A
C464        H468   1.083       .  S
C465        C466   1.403       .  A
C465       C2065   1.485   1_455  S
C466       H1981   1.084   1_455  S
H469       C1978   1.084       .  S
C470        C475   1.393   1_554  A
C471        C472   1.403       .  A
C471       H1988   1.084   1_455  S
C472       C2051   1.485   1_455  S
C473        C474   1.416       .  A
C473        H477   1.083       .  S
C474        C475   1.403       .  A
C474        C649   1.485       .  S
C475        H478   1.084       .  S
H476       C1983   1.084       .  S
C479        C480   1.393       .  A
C479        C484   1.394       .  A
C479        C708   1.474       .  S
C480       C1993   1.403       .  A
C480        H485   1.083       .  S
C481       C1992   1.403       .  A
C481        C482   1.417       .  A
C481        C555   1.484       .  S
C482       C1995   1.417       .  A
C482        H486   1.083       .  S
C483       C1994   1.417       .  A
C483        C484   1.404       .  A
C484        H487   1.084       .  S
C488        C489   1.393       .  A
C488        C493   1.394       .  A
C488        C711   1.473       .  S
C489        C490   1.403       .  A
C489        H494   1.084       .  S
C490        C491   1.416       .  A
C490        C509   1.484       .  S
C491        C492   1.416       .  A
C491        H495   1.083       .  S
C492        C493   1.404       .  A
C492        C663   1.486       .  S
C493        H496   1.083       .  S
O497       Cu505   2.018       .  S
O497        C507   1.276       .  A
O498       Cu505   2.005       .  S
O498        C508   1.281       .  A
O499       Cu505   2.003       .  S
O499        C509   1.281       .  A
O500       Cu505   2.016       .  S
O500        C510   1.277       .  A
O501       Cu506   2.005       .  S
O501        C510   1.281       .  A
O502       Cu506   2.018       .  S
O502        C509   1.277       .  A
O503       Cu506   2.021       .  S
O503        C508   1.277       .  A
O504       Cu506   2.008       .  S
O504        C507   1.281       .  A
Cu505      Cu506   2.368       .  S
C507        C559   1.486       .  S
C511        C512   1.393       .  A
C511        C516   1.394       .  A
C511        C698   1.473       .  S
C512        C513   1.403       .  A
C512        H517   1.083       .  S
C513        C514   1.416       .  A
C513        C666   1.486       .  S
C514        C515   1.417       .  A
C514        H518   1.083       .  S
C515        C516   1.404       .  A
C515        C540   1.486       .  S
C516        H519   1.084       .  S
C520        C521   1.395       .  A
C520       C1281   1.394       .  A
C520        C701   1.474       .  S
C521       C1278   1.405       .  A
C521        H526   1.084       .  S
C522       C1277   1.405   1_545  A
C522        C523   1.417       .  A
C523        C524   1.416       .  A
C523        H527   1.083       .  S
C524        C525   1.403       .  A
C524        C554   1.486       .  S
C525       C1276   1.394   1_545  A
C525        H528   1.083       .  S
O529       Cu537   2.018       .  S
O529        C539   1.277       .  A
O530       Cu537   2.007       .  S
O530        C540   1.281       .  A
O531       Cu537   2.006       .  S
O531        C541   1.281       .  A
O532       Cu537   2.017       .  S
O532        C542   1.276       .  A
O533       Cu538   2.007       .  S
O533        C542   1.281       .  A
O534       Cu538   2.019       .  S
O534        C541   1.277       .  A
O535       Cu538   2.020       .  S
O535        C540   1.277       .  A
O536       Cu538   2.008       .  S
O536        C539   1.281       .  A
Cu537      Cu538   2.368       .  S
C539       C1984   1.485       .  S
C542        C568   1.485       .  S
O543       Cu551   2.007       .  S
O543        C553   1.281       .  A
O544       Cu551   2.019       .  S
O544        C554   1.277       .  A
O545       Cu551   2.015       .  S
O545        C555   1.276       .  A
O546       Cu551   2.001       .  S
O546        C556   1.280       .  A
O547       Cu552   2.015       .  S
O547        C556   1.276       .  A
O548       Cu552   2.005       .  S
O548        C555   1.281       .  A
O549       Cu552   2.008       .  S
O549        C554   1.281       .  A
O550       Cu552   2.019       .  S
O550        C553   1.277       .  A
Cu551      Cu552   2.369       .  S
C553       C1977   1.485       .  S
C557        C562   1.393       .  A
C557        C688   1.472       .  S
C558        C559   1.403       .  A
C558        H563   1.083       .  S
C560        C561   1.418   1_554  A
C560        H564   1.082       .  S
C561        C562   1.403       .  A
C561        C638   1.486       .  S
C562        H565   1.083       .  S
C566        C571   1.394   1_554  A
C566        C691   1.472   1_554  S
C567        C568   1.403       .  A
C567        H572   1.083       .  S
C569        C570   1.418   1_554  A
C569        H573   1.082       .  S
C570        C571   1.404       .  A
C570        C606   1.487       .  S
C571        H574   1.083       .  S
C575       C2088   1.393       .  A
C575        C580   1.394       .  A
C575        C678   1.473       .  S
C576       C2087   1.393   1_455  A
C576        C577   1.404       .  A
C576        H581   1.083       .  S
C577        C578   1.417       .  A
C577        C651   1.487       .  S
C578        C579   1.418       .  A
C578        H582   1.083       .  S
C579       C2092   1.405   1_455  A
C580       C2091   1.405       .  A
C580        H583   1.084       .  S
C584        C585   1.394       .  A
C584        C589   1.394       .  A
C584        C681   1.474       .  S
C585        C586   1.405       .  A
C585        H590   1.084       .  S
C586        C587   1.417       .  A
C586        C604   1.486       .  S
C587        C588   1.416       .  A
C587        H591   1.083       .  S
C588        C589   1.404       .  A
C588        C664   1.486       .  S
C589        H592   1.083       .  S
O593       Cu601   2.014       .  S
O593        C603   1.276       .  A
O594       Cu601   2.005       .  S
O594        C604   1.280       .  A
O595       Cu601   2.012       .  S
O595        C605   1.282       .  A
O596       Cu601   2.021       .  S
O596        C606   1.277       .  A
O597       Cu602   2.011       .  S
O597        C606   1.281       .  A
O598       Cu602   2.025       .  S
O598        C605   1.277       .  A
O599       Cu602   2.021       .  S
O599        C604   1.277       .  A
O600       Cu602   2.007       .  S
O600        C603   1.281       .  A
Cu601      Cu602   2.368       .  S
C603       C1203   1.483       .  S
C607        C608   1.395       .  A
C607        C612   1.395       .  A
C607        C668   1.477       .  S
C608       C1365   1.404       .  A
C608        H613   1.083       .  S
C609       C1364   1.404       .  A
C609        C610   1.417       .  A
C609        C650   1.488       .  S
C610       C1367   1.417       .  A
C610        H614   1.083       .  S
C611       C1366   1.417       .  A
C611        C612   1.404       .  A
C612        H615   1.084       .  S
C616        C617   1.395       .  A
C616        C621   1.394       .  A
C616        C671   1.477       .  S
C617        C618   1.405       .  A
C617        H622   1.084       .  S
C618        C619   1.417       .  A
C618        C636   1.486       .  S
C619        C620   1.416       .  A
C619        H623   1.083       .  S
C620        C621   1.403       .  A
C620        C665   1.486       .  S
C621        H624   1.083       .  S
O625       Cu633   2.007       .  S
O625        C635   1.281       .  A
O626       Cu633   2.020       .  S
O626        C636   1.277       .  A
O627       Cu633   2.022       .  S
O627        C637   1.277       .  A
O628       Cu633   2.009       .  S
O628        C638   1.281       .  A
O629       Cu634   2.019       .  S
O629        C638   1.277       .  A
O630       Cu634   2.009       .  S
O630        C637   1.281       .  A
O631       Cu634   2.008       .  S
O631        C636   1.281       .  A
O632       Cu634   2.018       .  S
O632        C635   1.277       .  A
Cu633      Cu634   2.368       .  S
O639       Cu647   2.019       .  S
O639        C649   1.277       .  A
O640       Cu647   2.009       .  S
O640        C650   1.281       .  A
O641       Cu647   2.007       .  S
O641        C651   1.281       .  A
O642       Cu647   2.015       .  S
O642        C652   1.276       .  A
O643       Cu648   2.003       .  S
O643        C652   1.281       .  A
O644       Cu648   2.021       .  S
O644        C651   1.277       .  A
O645       Cu648   2.022       .  S
O645        C650   1.277       .  A
O646       Cu648   2.005       .  S
O646        C649   1.281       .  A
Cu647      Cu648   2.368       .  S
C652       C1210   1.483       .  S
O653       Cu661   2.018       .  S
O653        C663   1.277       .  A
O654       Cu661   2.008       .  S
O654        C664   1.281       .  A
O655       Cu661   2.007       .  S
O655        C665   1.281       .  A
O656       Cu661   2.019       .  S
O656        C666   1.277       .  A
O657       Cu662   2.007       .  S
O657        C666   1.281       .  A
O658       Cu662   2.019       .  S
O658        C665   1.277       .  A
O659       Cu662   2.021       .  S
O659        C664   1.277       .  A
O660       Cu662   2.008       .  S
O660        C663   1.281       .  A
Cu661      Cu662   2.368       .  S
C667        C668   1.404       .  A
C667        C672   1.395       .  A
C667        H674   1.081       .  S
C668        C669   1.406       .  A
C669        C670   1.394       .  A
C669        F676   1.358       .  S
C670        C671   1.404       .  A
C670        H675   1.081       .  S
C671        C672   1.406       .  A
C672        F673   1.358       .  S
C677        C678   1.402       .  A
C677        C682   1.395       .  A
C677        H684   1.085       .  S
C678        C679   1.406       .  A
C679        C680   1.395       .  A
C679        F686   1.358       .  S
C680        C681   1.403       .  A
C680        H685   1.085       .  S
C681        C682   1.406       .  A
C682        F683   1.358       .  S
C687        C692   1.392       .  A
C687        H694   1.083       .  S
C688        C689   1.406       .  A
C689        C690   1.393       .  A
C689        F696   1.358       .  S
C690        C691   1.404       .  A
C690        H695   1.083       .  S
C692        F693   1.358       .  S
C697        C698   1.402       .  A
C697        C702   1.394       .  A
C697        H704   1.084       .  S
C698        C699   1.406       .  A
C699        C700   1.394       .  A
C699        F706   1.358       .  S
C700        C701   1.403       .  A
C700        H705   1.084       .  S
C701        C702   1.406       .  A
C702        F703   1.358       .  S
C707        C708   1.404       .  A
C707        C712   1.394       .  A
C707        H714   1.081       .  S
C708        C709   1.405       .  A
C709        C710   1.394       .  A
C709        F716   1.358       .  S
C710        C711   1.403       .  A
C710        H715   1.081       .  S
C711        C712   1.406       .  A
C712        F713   1.358       .  S
C717        C722   1.394       .  A
C717        H724   1.081       .  S
C718       C2231   1.404       .  A
C719       C2230   1.404       .  A
C719       C2232   1.393       .  A
C719        F726   1.358       .  S
C720       C2231   1.393       .  A
C720        C721   1.403       .  A
C720       H2237   1.081   1_455  S
C722        F723   1.358       .  S
H725       C2232   1.081       .  S
C727       C1106   1.402       .  A
C727        C732   1.392       .  A
C727        H734   1.084       .  S
C728       C1105   1.402   1_546  A
C728        C729   1.406       .  A
C729        C730   1.393       .  A
C729        F736   1.358       .  S
C730        C731   1.403   1_556  A
C730        H735   1.084       .  S
C731       C1110   1.406   1_545  A
C732       C1109   1.406       .  A
C732        F733   1.358       .  S
C737        C738   1.404       .  A
C737        C742   1.394       .  A
C737        H744   1.083       .  S
C738        C739   1.406       .  A
C739        C740   1.395       .  A
C739        F746   1.358       .  S
C740        C741   1.404       .  A
C740        H745   1.083       .  S
C741        C742   1.405       .  A
C742        F743   1.358       .  S
C747        C748   1.404       .  A
C747        C752   1.394       .  A
C747        H754   1.083       .  S
C748        C749   1.404       .  A
C749        C750   1.394       .  A
C749        F756   1.357       .  S
C750        C751   1.403       .  A
C750        H755   1.083       .  S
C751        C752   1.405       .  A
C752        F753   1.358       .  S
C757        C758   1.395       .  A
C757        C762   1.392       .  A
C757       C1126   1.473       .  S
C758        C759   1.405       .  A
C758        H763   1.083       .  S
C759       C2272   1.418       .  A
C759        C820   1.489       .  S
C760       C2271   1.418       .  A
C760        C761   1.417       .  A
C760        H764   1.082       .  S
C761       C2274   1.403       .  A
C761        C919   1.486       .  S
C762       C2273   1.403       .  A
C762        H765   1.083       .  S
C766       C1129   1.472       .  S
C767        C768   1.403       .  A
C768        C769   1.417       .  A
C768        C806   1.487       .  S
C769        C770   1.418       .  A
C769        H773   1.082       .  S
C770        C771   1.405       .  A
C770        C886   1.486       .  S
C771        H774   1.083       .  S
C775       C2288   1.395       .  A
C775       C2292   1.394       .  A
C775       C1116   1.475       .  S
C776       C2287   1.395       .  A
C776        C777   1.405   1_655  A
C776       H2293   1.083       .  S
C777        C778   1.419       .  A
C777        C819   1.489       .  S
C778        C779   1.418       .  A
C778        H782   1.082       .  S
C779        C780   1.404       .  A
C779       C1015   1.488       .  S
C780       C2287   1.394   1_455  A
C780        H783   1.083       .  S
H781       C2288   1.083       .  S
C784        C785   1.394       .  A
C784        C789   1.393       .  A
C784       C1119   1.475       .  S
C785        H790   1.083       .  S
C786        C787   1.419   1_545  A
C786        C983   1.490   1_545  S
C787        H791   1.082       .  S
C788        C789   1.404       .  A
C788        C805   1.488       .  S
C789        H792   1.083       .  S
O793       Cu801   2.020       .  S
O793        C803   1.277       .  A
O794       Cu801   2.009       .  S
O794        C804   1.281       .  A
O795       Cu801   2.009       .  S
O795        C805   1.281       .  A
O796       Cu801   2.020       .  S
O796        C806   1.277       .  A
O797        C806   1.281       .  A
O798       Cu802   2.024       .  S
O799       Cu802   2.022       .  S
O800        C803   1.281       .  A
C803        C900   1.487       .  S
C804        C989   1.487       .  S
O807       Cu815   2.009       .  S
O807        C817   1.281       .  A
O808       Cu815   2.022       .  S
O808        C818   1.277       .  A
O809       Cu815   2.024       .  S
O809        C819   1.277       .  A
O810       Cu815   2.012       .  S
O810        C820   1.281       .  A
O811       Cu816   2.024       .  S
O811       C2332   1.277       .  A
O812      Cu2328   2.012   1_455  S
O812        C819   1.281       .  A
O813      Cu2328   2.011   1_455  S
O813        C818   1.281       .  A
O814      Cu2328   2.022       .  S
O814        C817   1.277   1_655  A
Cu815     Cu2328   2.367   1_455  S
Cu816      O2324   2.012       .  S
Cu816      O2325   2.011       .  S
Cu816      O2326   2.022       .  S
Cu816     Cu2327   2.367       .  S
C817        C861   1.487       .  S
C818        C957   1.488       .  S
C820       O2323   1.277   1_455  A
C821        C822   1.392   1_556  A
C821       C1204   1.394       .  A
C821       C1484   1.472       .  S
C822        C823   1.402       .  A
C822        H827   1.083       .  S
C823        C824   1.415   1_554  A
C823        C934   1.482       .  S
C824       C1203   1.415       .  A
C824        H828   1.083       .  S
C825       C1202   1.415       .  A
C825        C826   1.403       .  A
C826       C1199   1.394       .  A
C830        C831   1.392       .  A
C830       C1213   1.393       .  A
C830       C1109   1.472       .  S
C831        C832   1.402       .  A
C832        C833   1.415       .  A
C833       C1212   1.416       .  A
C833        H837   1.083       .  S
C834       C1211   1.416       .  A
C834        C835   1.404       .  A
C834        C888   1.484       .  S
C835       C1208   1.393       .  A
C835        H838   1.084       .  S
C839       C1218   1.393   1_554  A
C839        C844   1.394       .  A
C839       C1099   1.471       .  S
C840       C1217   1.393       .  A
C840        C841   1.404       .  A
C840        H845   1.084       .  S
C841       C1220   1.416       .  A
C841       C1013   1.485       .  S
C842       C1219   1.416       .  A
C842        C843   1.416   1_556  A
C842        H846   1.083       .  S
C843        C844   1.403       .  A
C843       C2443   1.485   1_455  S
C844       H2359   1.084   1_455  S
H847       C2356   1.084       .  S
C848       C1227   1.393       .  A
C848        C853   1.393       .  A
C848       C1474   1.471       .  S
C849       C1226   1.393       .  A
C849        C850   1.403       .  A
C849       H2366   1.084   1_455  S
C850       C1229   1.416   1_554  A
C850       C2429   1.485   1_455  S
C851       C1228   1.416       .  A
C851        C852   1.416       .  A
C851        H855   1.083       .  S
C852        C853   1.403       .  A
C852       C1027   1.485       .  S
C853        H856   1.083       .  S
H854       C2361   1.084       .  S
C857        C858   1.393       .  A
C857        C862   1.394       .  A
C857       C1086   1.474       .  S
C858       C2371   1.403       .  A
C858        H863   1.083       .  S
C859       C2370   1.403       .  A
C859        C860   1.417       .  A
C859        C933   1.484       .  S
C860       C2373   1.417       .  A
C860        H864   1.083       .  S
C861       C2372   1.417       .  A
C861        C862   1.404       .  A
C862        H865   1.084       .  S
C866        C867   1.393       .  A
C866        C871   1.394       .  A
C866       C1089   1.473       .  S
C867        C868   1.403       .  A
C867        H872   1.084       .  S
C868        C869   1.416       .  A
C868        C887   1.484       .  S
C869        C870   1.416       .  A
C869        H873   1.083       .  S
C870        C871   1.404       .  A
C870       C1041   1.486       .  S
C871        H874   1.083       .  S
O875       Cu883   2.018       .  S
O875        C885   1.276       .  A
O876       Cu883   2.005       .  S
O876        C886   1.281       .  A
O877       Cu883   2.003       .  S
O877        C887   1.281       .  A
O878       Cu883   2.016       .  S
O878        C888   1.277       .  A
O879       Cu884   2.005       .  S
O879        C888   1.281       .  A
O880       Cu884   2.018       .  S
O880        C887   1.277       .  A
O881       Cu884   2.021       .  S
O881        C886   1.277       .  A
O882       Cu884   2.008       .  S
O882        C885   1.281       .  A
Cu883      Cu884   2.368       .  S
C885        C937   1.486       .  S
C889        C890   1.393       .  A
C889        C894   1.394       .  A
C889       C1076   1.473       .  S
C890        C891   1.403       .  A
C890        H895   1.083       .  S
C891        C892   1.416       .  A
C891       C1044   1.486       .  S
C892        C893   1.417       .  A
C892        H896   1.083       .  S
C893        C894   1.404       .  A
C893        C918   1.486       .  S
C894        H897   1.084       .  S
C898        C899   1.395       .  A
C898       C1079   1.474       .  S
C899        H904   1.084       .  S
C900        C901   1.417       .  A
C901        C902   1.416       .  A
C901        H905   1.083       .  S
C902        C903   1.403       .  A
C902        C932   1.486       .  S
C903        H906   1.083       .  S
O907       Cu915   2.018       .  S
O907        C917   1.277       .  A
O908       Cu915   2.007       .  S
O908        C918   1.281       .  A
O909       Cu915   2.006       .  S
O909        C919   1.281       .  A
O910       Cu915   2.017       .  S
O910        C920   1.276       .  A
O911       Cu916   2.007       .  S
O911        C920   1.281       .  A
O912       Cu916   2.019       .  S
O912        C919   1.277       .  A
O913       Cu916   2.020       .  S
O913        C918   1.277       .  A
O914       Cu916   2.008       .  S
O914        C917   1.281       .  A
Cu915      Cu916   2.368       .  S
C917       C2362   1.485       .  S
C920        C946   1.485       .  S
O921       Cu929   2.007       .  S
O921        C931   1.281       .  A
O922       Cu929   2.019       .  S
O922        C932   1.277       .  A
O923       Cu929   2.015       .  S
O923        C933   1.276       .  A
O924       Cu929   2.001       .  S
O924        C934   1.280       .  A
O925       Cu930   2.015       .  S
O925        C934   1.276       .  A
O926       Cu930   2.005       .  S
O926        C933   1.281       .  A
O927       Cu930   2.008       .  S
O927        C932   1.281       .  A
O928       Cu930   2.019       .  S
O928        C931   1.277       .  A
Cu929      Cu930   2.369       .  S
C931       C2355   1.485       .  S
C935       C1314   1.392       .  A
C935        C940   1.393       .  A
C935       C1066   1.472       .  S
C936       C1313   1.392   1_554  A
C936        C937   1.403       .  A
C936        H941   1.083       .  S
C937       C1316   1.418       .  A
C938       C1315   1.418       .  A
C938        C939   1.418       .  A
C938        H942   1.082       .  S
C939        C940   1.403       .  A
C939       C1016   1.486       .  S
C940        H943   1.083       .  S
C944       C1323   1.392       .  A
C944        C949   1.394       .  A
C944       C1069   1.472       .  S
C945       C1322   1.392       .  A
C945        C946   1.403       .  A
C945        H950   1.083       .  S
C946       C1325   1.417       .  A
C947       C1324   1.417       .  A
C947        C948   1.418       .  A
C947        H951   1.082       .  S
C948        C949   1.404       .  A
C948        C984   1.487       .  S
C949        H952   1.083       .  S
C953       C2466   1.393       .  A
C953        C958   1.394       .  A
C953       C1056   1.473       .  S
C954       C2465   1.393   1_455  A
C954        C955   1.404       .  A
C954        H959   1.083       .  S
C955        C956   1.417       .  A
C955       C1029   1.487       .  S
C956        C957   1.418       .  A
C956        H960   1.083       .  S
C957       C2470   1.405   1_455  A
C958       C2469   1.405       .  A
C958        H961   1.084       .  S
C962        C963   1.394       .  A
C962        C967   1.394       .  A
C962       C1059   1.474       .  S
C963        C964   1.405       .  A
C963        H968   1.084       .  S
C964        C965   1.417       .  A
C964        C982   1.486       .  S
C965        C966   1.416       .  A
C965        H969   1.083       .  S
C966        C967   1.404       .  A
C966       C1042   1.486       .  S
C967        H970   1.083       .  S
O971       Cu979   2.014       .  S
O971        C981   1.276       .  A
O972       Cu979   2.005       .  S
O972        C982   1.280       .  A
O973       Cu979   2.012       .  S
O973        C983   1.282       .  A
O974       Cu979   2.021       .  S
O974        C984   1.277       .  A
O975       Cu980   2.011       .  S
O975        C984   1.281       .  A
O976       Cu980   2.025       .  S
O976        C983   1.277       .  A
O977       Cu980   2.021       .  S
O977        C982   1.277       .  A
O978       Cu980   2.007       .  S
O978        C981   1.281       .  A
Cu979      Cu980   2.368       .  S
C985        C986   1.395       .  A
C985        C990   1.395       .  A
C985       C1046   1.477       .  S
C986        H991   1.083       .  S
C987        C988   1.417       .  A
C987       C1028   1.488   1_545  S
C988        H992   1.083   1_545  S
C989        C990   1.404       .  A
C990        H993   1.084       .  S
C994        C995   1.395       .  A
C994        C999   1.394       .  A
C994       C1049   1.477       .  S
C995        C996   1.405       .  A
C995       H1000   1.084       .  S
C996        C997   1.417       .  A
C996       C1014   1.486       .  S
C997        C998   1.416       .  A
C997       H1001   1.083       .  S
C998        C999   1.403       .  A
C998       C1043   1.486       .  S
C999       H1002   1.083       .  S
O1003     Cu1011   2.007       .  S
O1003      C1013   1.281       .  A
O1004     Cu1011   2.020       .  S
O1004      C1014   1.277       .  A
O1005     Cu1011   2.022       .  S
O1005      C1015   1.277       .  A
O1006     Cu1011   2.009       .  S
O1006      C1016   1.281       .  A
O1007     Cu1012   2.019       .  S
O1007      C1016   1.277       .  A
O1008     Cu1012   2.009       .  S
O1008      C1015   1.281       .  A
O1009     Cu1012   2.008       .  S
O1009      C1014   1.281       .  A
O1010     Cu1012   2.018       .  S
O1010      C1013   1.277       .  A
Cu1011    Cu1012   2.368       .  S
O1017     Cu1025   2.019       .  S
O1017      C1027   1.277       .  A
O1018     Cu1025   2.009       .  S
O1018      C1028   1.281       .  A
O1019     Cu1025   2.007       .  S
O1019      C1029   1.281       .  A
O1020     Cu1025   2.015       .  S
O1020      C1030   1.276       .  A
O1021     Cu1026   2.003       .  S
O1021      C1030   1.281       .  A
O1022     Cu1026   2.021       .  S
O1022      C1029   1.277       .  A
O1023     Cu1026   2.022       .  S
O1023      C1028   1.277       .  A
O1024     Cu1026   2.005       .  S
O1024      C1027   1.281       .  A
Cu1025    Cu1026   2.368       .  S
O1031     Cu1039   2.018       .  S
O1031      C1041   1.277       .  A
O1032     Cu1039   2.008       .  S
O1032      C1042   1.281       .  A
O1033     Cu1039   2.007       .  S
O1033      C1043   1.281       .  A
O1034     Cu1039   2.019       .  S
O1034      C1044   1.277       .  A
O1035     Cu1040   2.007       .  S
O1035      C1044   1.281       .  A
O1036     Cu1040   2.019       .  S
O1036      C1043   1.277       .  A
O1037     Cu1040   2.021       .  S
O1037      C1042   1.277       .  A
O1038     Cu1040   2.008       .  S
O1038      C1041   1.281       .  A
Cu1039    Cu1040   2.368       .  S
C1045      C1046   1.404       .  A
C1045      C1050   1.395       .  A
C1045      H1052   1.081       .  S
C1046      C1047   1.406       .  A
C1047      C1048   1.394       .  A
C1047      F1054   1.358       .  S
C1048      C1049   1.404       .  A
C1048      H1053   1.081       .  S
C1049      C1050   1.406       .  A
C1050      F1051   1.358       .  S
C1055      C1056   1.402       .  A
C1055      C1060   1.395       .  A
C1055      H1062   1.085       .  S
C1056      C1057   1.406       .  A
C1057      C1058   1.395       .  A
C1057      F1064   1.358       .  S
C1058      C1059   1.403       .  A
C1058      H1063   1.085       .  S
C1059      C1060   1.406       .  A
C1060      F1061   1.358       .  S
C1065      C1444   1.403   1_554  A
C1065      C1070   1.392       .  A
C1065      H1072   1.083       .  S
C1066      C1443   1.403       .  A
C1066      C1067   1.406       .  A
C1067      C1068   1.393       .  A
C1067      F1074   1.358       .  S
C1068      C1069   1.404       .  A
C1068      H1073   1.083       .  S
C1069      C1448   1.405       .  A
C1070      C1447   1.405   1_554  A
C1070      F1071   1.357       .  S
C1075      C1076   1.402       .  A
C1075      C1080   1.394       .  A
C1075      H1082   1.084       .  S
C1076      C1077   1.406       .  A
C1077      C1078   1.394       .  A
C1077      F1084   1.358       .  S
C1078      C1079   1.403       .  A
C1078      H1083   1.084       .  S
C1079      C1080   1.406       .  A
C1080      F1081   1.358       .  S
C1085      C1086   1.404       .  A
C1085      C1090   1.394       .  A
C1085      H1092   1.081       .  S
C1086      C1087   1.405       .  A
C1087      C1088   1.394       .  A
C1087      F1094   1.358       .  S
C1088      C1089   1.403       .  A
C1088      H1093   1.081       .  S
C1089      C1090   1.406       .  A
C1090      F1091   1.358       .  S
C1095      C1474   1.403       .  A
C1095      C1100   1.394       .  A
C1095      H1102   1.081       .  S
C1096      C1473   1.403       .  A
C1096      C2609   1.404   1_554  A
C1096      C1226   1.471       .  S
C1097      C2608   1.404   1_556  A
C1097      C2610   1.393       .  A
C1097      F1104   1.358       .  S
C1098      C2609   1.393       .  A
C1098      C1099   1.403   1_556  A
C1098      H2615   1.081   1_455  S
C1099      C1478   1.405       .  A
C1100      C1477   1.405       .  A
C1100      F1101   1.358       .  S
H1103      C2610   1.081       .  S
C1105      C1110   1.392       .  A
C1105      H1112   1.084       .  S
C1106      C1107   1.406       .  A
C1106      C1199   1.472       .  S
C1107      C1108   1.393       .  A
C1107      F1114   1.358       .  S
C1108      C1109   1.403       .  A
C1108      H1113   1.084       .  S
C1110      F1111   1.358       .  S
C1115      C1116   1.404       .  A
C1115      C1120   1.394       .  A
C1115      H1122   1.083       .  S
C1116      C1117   1.406       .  A
C1117      C1118   1.395       .  A
C1117      F1124   1.358       .  S
C1118      C1119   1.404       .  A
C1118      H1123   1.083       .  S
C1119      C1120   1.405       .  A
C1120      F1121   1.358       .  S
C1125      C1126   1.404       .  A
C1125      C1130   1.394       .  A
C1125      H1132   1.083       .  S
C1126      C1127   1.404       .  A
C1127      C1128   1.394       .  A
C1127      F1134   1.357       .  S
C1128      C1129   1.403       .  A
C1128      H1133   1.083       .  S
C1129      C1130   1.405       .  A
C1130      F1131   1.358       .  S
C1135      C1136   1.395       .  A
C1135      C1140   1.392       .  A
C1135      C1504   1.473       .  S
C1136      C1137   1.405       .  A
C1136      H1141   1.083       .  S
C1137      C2650   1.418       .  A
C1137      C1198   1.489       .  S
C1138      C2649   1.418       .  A
C1138      C1139   1.417       .  A
C1138      H1142   1.082       .  S
C1139      C2652   1.403       .  A
C1139      C1297   1.486       .  S
C1140      C2651   1.403       .  A
C1140      H1143   1.083       .  S
C1144      C1507   1.472       .  S
C1145      C1146   1.403       .  A
C1146      C1147   1.417       .  A
C1146      C1184   1.487       .  S
C1147      C1148   1.418       .  A
C1147      H1151   1.082       .  S
C1148      C1149   1.405       .  A
C1148      C1264   1.486       .  S
C1149      H1152   1.083       .  S
C1153      C2666   1.395       .  A
C1153      C2670   1.394       .  A
C1153      C1494   1.475       .  S
C1154      C2665   1.395       .  A
C1154      C1155   1.405   1_655  A
C1154      H2671   1.083       .  S
C1155      C1156   1.419       .  A
C1155      C1197   1.489       .  S
C1156      C1157   1.418       .  A
C1156      H1160   1.082       .  S
C1157      C1158   1.404       .  A
C1157      C1393   1.488       .  S
C1158      C2665   1.394   1_455  A
C1158      H1161   1.083       .  S
H1159      C2666   1.083       .  S
C1162      C1163   1.394       .  A
C1162      C1167   1.393       .  A
C1162      C1497   1.475       .  S
C1163      H1168   1.083       .  S
C1164      C1165   1.419   1_545  A
C1164      C1361   1.490   1_545  S
C1165      H1169   1.082       .  S
C1166      C1167   1.404       .  A
C1166      C1183   1.488       .  S
C1167      H1170   1.083       .  S
O1171     Cu1179   2.020       .  S
O1171      C1181   1.277       .  A
O1172     Cu1179   2.009       .  S
O1172      C1182   1.281       .  A
O1173     Cu1179   2.009       .  S
O1173      C1183   1.281       .  A
O1174     Cu1179   2.020       .  S
O1174      C1184   1.277       .  A
O1175      C1184   1.281       .  A
O1176     Cu1180   2.024       .  S
O1177     Cu1180   2.022       .  S
O1178      C1181   1.281       .  A
C1181      C1278   1.487       .  S
C1182      C1367   1.487       .  S
O1185     Cu1193   2.009       .  S
O1185      C1195   1.281       .  A
O1186     Cu1193   2.022       .  S
O1186      C1196   1.277       .  A
O1187     Cu1193   2.024       .  S
O1187      C1197   1.277       .  A
O1188     Cu1193   2.012       .  S
O1188      C1198   1.281       .  A
O1189     Cu1194   2.024       .  S
O1189      C2710   1.277       .  A
O1190     Cu2706   2.012   1_455  S
O1190      C1197   1.281       .  A
O1191     Cu2706   2.011   1_455  S
O1191      C1196   1.281       .  A
O1192     Cu2706   2.022       .  S
O1192      C1195   1.277   1_655  A
Cu1193    Cu2706   2.367   1_455  S
Cu1194     O2702   2.012       .  S
Cu1194     O2703   2.011       .  S
Cu1194     O2704   2.022       .  S
Cu1194    Cu2705   2.367       .  S
C1195      C1239   1.487       .  S
C1196      C1335   1.488       .  S
C1198      O2701   1.277   1_455  A
C1199      C1200   1.392       .  A
C1200      C1201   1.402       .  A
C1200      H1205   1.083       .  S
C1201      C1202   1.415       .  A
C1201      C1312   1.482       .  S
C1202      H1206   1.083       .  S
C1203      C1204   1.403       .  A
C1208      C1209   1.392   1_554  A
C1208      C1487   1.472       .  S
C1209      C1210   1.402       .  A
C1210      C1211   1.415   1_556  A
C1211      H1215   1.083       .  S
C1212      C1213   1.404       .  A
C1212      C1266   1.484       .  S
C1213      H1216   1.084       .  S
C1217      C1222   1.394       .  A
C1217      C1477   1.471       .  S
C1218      C1219   1.404       .  A
C1218      H1223   1.084       .  S
C1219      C1391   1.485       .  S
C1220      C1221   1.416       .  A
C1220      H1224   1.083       .  S
C1221      C1222   1.403       .  A
C1221      C2821   1.485   1_455  S
C1222      H2737   1.084   1_455  S
H1225      C2734   1.084       .  S
C1226      C1231   1.393   1_554  A
C1227      C1228   1.403       .  A
C1227      H2744   1.084   1_455  S
C1228      C2807   1.485   1_455  S
C1229      C1230   1.416       .  A
C1229      H1233   1.083       .  S
C1230      C1231   1.403       .  A
C1230      C1405   1.485       .  S
C1231      H1234   1.083       .  S
H1232      C2739   1.084       .  S
C1235      C1236   1.393       .  A
C1235      C1240   1.394       .  A
C1235      C1464   1.474       .  S
C1236      C2749   1.403       .  A
C1236      H1241   1.083       .  S
C1237      C2748   1.403       .  A
C1237      C1238   1.417       .  A
C1237      C1311   1.484       .  S
C1238      C2751   1.417       .  A
C1238      H1242   1.083       .  S
C1239      C2750   1.417       .  A
C1239      C1240   1.404       .  A
C1240      H1243   1.084       .  S
C1244      C1245   1.393       .  A
C1244      C1249   1.394       .  A
C1244      C1467   1.473       .  S
C1245      C1246   1.403       .  A
C1245      H1250   1.084       .  S
C1246      C1247   1.416       .  A
C1246      C1265   1.484       .  S
C1247      C1248   1.416       .  A
C1247      H1251   1.083       .  S
C1248      C1249   1.404       .  A
C1248      C1419   1.486       .  S
C1249      H1252   1.083       .  S
O1253     Cu1261   2.018       .  S
O1253      C1263   1.276       .  A
O1254     Cu1261   2.005       .  S
O1254      C1264   1.281       .  A
O1255     Cu1261   2.003       .  S
O1255      C1265   1.281       .  A
O1256     Cu1261   2.016       .  S
O1256      C1266   1.277       .  A
O1257     Cu1262   2.005       .  S
O1257      C1266   1.281       .  A
O1258     Cu1262   2.018       .  S
O1258      C1265   1.277       .  A
O1259     Cu1262   2.021       .  S
O1259      C1264   1.277       .  A
O1260     Cu1262   2.008       .  S
O1260      C1263   1.281       .  A
Cu1261    Cu1262   2.368       .  S
C1263      C1315   1.486       .  S
C1267      C1268   1.393       .  A
C1267      C1272   1.394       .  A
C1267      C1454   1.473       .  S
C1268      C1269   1.403       .  A
C1268      H1273   1.083       .  S
C1269      C1270   1.417       .  A
C1269      C1422   1.486       .  S
C1270      C1271   1.417       .  A
C1270      H1274   1.083       .  S
C1271      C1272   1.404       .  A
C1271      C1296   1.486       .  S
C1272      H1275   1.084       .  S
C1276      C1277   1.395       .  A
C1276      C1457   1.474       .  S
C1277      H1282   1.084       .  S
C1278      C1279   1.417       .  A
C1279      C1280   1.416       .  A
C1279      H1283   1.083       .  S
C1280      C1281   1.403       .  A
C1280      C1310   1.486       .  S
C1281      H1284   1.083       .  S
O1285     Cu1293   2.018       .  S
O1285      C1295   1.277       .  A
O1286     Cu1293   2.007       .  S
O1286      C1296   1.281       .  A
O1287     Cu1293   2.006       .  S
O1287      C1297   1.281       .  A
O1288     Cu1293   2.017       .  S
O1288      C1298   1.276       .  A
O1289     Cu1294   2.007       .  S
O1289      C1298   1.281       .  A
O1290     Cu1294   2.019       .  S
O1290      C1297   1.277       .  A
O1291     Cu1294   2.020       .  S
O1291      C1296   1.277       .  A
O1292     Cu1294   2.008       .  S
O1292      C1295   1.281       .  A
Cu1293    Cu1294   2.368       .  S
C1295      C2740   1.485       .  S
C1298      C1324   1.485       .  S
O1299     Cu1307   2.007       .  S
O1299      C1309   1.281       .  A
O1300     Cu1307   2.019       .  S
O1300      C1310   1.277       .  A
O1301     Cu1307   2.015       .  S
O1301      C1311   1.276       .  A
O1302     Cu1307   2.001       .  S
O1302      C1312   1.280       .  A
O1303     Cu1308   2.015       .  S
O1303      C1312   1.276       .  A
O1304     Cu1308   2.005       .  S
O1304      C1311   1.281       .  A
O1305     Cu1308   2.008       .  S
O1305      C1310   1.281       .  A
O1306     Cu1308   2.019       .  S
O1306      C1309   1.277       .  A
Cu1307    Cu1308   2.369       .  S
C1309      C2733   1.485       .  S
C1313      C1318   1.393       .  A
C1313      C1444   1.472       .  S
C1314      C1315   1.403       .  A
C1314      H1319   1.083       .  S
C1316      C1317   1.418   1_554  A
C1316      H1320   1.082       .  S
C1317      C1318   1.403       .  A
C1317      C1394   1.486       .  S
C1318      H1321   1.083       .  S
C1322      C1327   1.394   1_554  A
C1322      C1447   1.472   1_554  S
C1323      C1324   1.403       .  A
C1323      H1328   1.083       .  S
C1325      C1326   1.418   1_554  A
C1325      H1329   1.082       .  S
C1326      C1327   1.404       .  A
C1326      C1362   1.487       .  S
C1327      H1330   1.083       .  S
C1331      C2844   1.393       .  A
C1331      C1336   1.394       .  A
C1331      C1434   1.473       .  S
C1332      C2843   1.393   1_455  A
C1332      C1333   1.404       .  A
C1332      H1337   1.083       .  S
C1333      C1334   1.417       .  A
C1333      C1407   1.487       .  S
C1334      C1335   1.418       .  A
C1334      H1338   1.083       .  S
C1335      C2848   1.405   1_455  A
C1336      C2847   1.405       .  A
C1336      H1339   1.084       .  S
C1340      C1341   1.394       .  A
C1340      C1345   1.394       .  A
C1340      C1437   1.474       .  S
C1341      C1342   1.405       .  A
C1341      H1346   1.084       .  S
C1342      C1343   1.417       .  A
C1342      C1360   1.486       .  S
C1343      C1344   1.416       .  A
C1343      H1347   1.083       .  S
C1344      C1345   1.404       .  A
C1344      C1420   1.486       .  S
C1345      H1348   1.083       .  S
O1349     Cu1357   2.014       .  S
O1349      C1359   1.276       .  A
O1350     Cu1357   2.005       .  S
O1350      C1360   1.280       .  A
O1351     Cu1357   2.012       .  S
O1351      C1361   1.282       .  A
O1352     Cu1357   2.021       .  S
O1352      C1362   1.277       .  A
O1353     Cu1358   2.011       .  S
O1353      C1362   1.281       .  A
O1354     Cu1358   2.025       .  S
O1354      C1361   1.277       .  A
O1355     Cu1358   2.021       .  S
O1355      C1360   1.277       .  A
O1356     Cu1358   2.007       .  S
O1356      C1359   1.281       .  A
Cu1357    Cu1358   2.368       .  S
C1363      C1364   1.395       .  A
C1363      C1368   1.395       .  A
C1363      C1424   1.477       .  S
C1364      H1369   1.083       .  S
C1365      C1366   1.417       .  A
C1365      C1406   1.488   1_545  S
C1366      H1370   1.083   1_545  S
C1367      C1368   1.404       .  A
C1368      H1371   1.084       .  S
C1372      C1373   1.395       .  A
C1372      C1377   1.394       .  A
C1372      C1427   1.477       .  S
C1373      C1374   1.405       .  A
C1373      H1378   1.084       .  S
C1374      C1375   1.417       .  A
C1374      C1392   1.486       .  S
C1375      C1376   1.416       .  A
C1375      H1379   1.083       .  S
C1376      C1377   1.403       .  A
C1376      C1421   1.486       .  S
C1377      H1380   1.083       .  S
O1381     Cu1389   2.007       .  S
O1381      C1391   1.281       .  A
O1382     Cu1389   2.020       .  S
O1382      C1392   1.277       .  A
O1383     Cu1389   2.022       .  S
O1383      C1393   1.277       .  A
O1384     Cu1389   2.009       .  S
O1384      C1394   1.281       .  A
O1385     Cu1390   2.019       .  S
O1385      C1394   1.277       .  A
O1386     Cu1390   2.009       .  S
O1386      C1393   1.281       .  A
O1387     Cu1390   2.008       .  S
O1387      C1392   1.281       .  A
O1388     Cu1390   2.018       .  S
O1388      C1391   1.277       .  A
Cu1389    Cu1390   2.368       .  S
O1395     Cu1403   2.019       .  S
O1395      C1405   1.277       .  A
O1396     Cu1403   2.009       .  S
O1396      C1406   1.281       .  A
O1397     Cu1403   2.007       .  S
O1397      C1407   1.281       .  A
O1398     Cu1403   2.015       .  S
O1398      C1408   1.276       .  A
O1399     Cu1404   2.003       .  S
O1399      C1408   1.281       .  A
O1400     Cu1404   2.021       .  S
O1400      C1407   1.277       .  A
O1401     Cu1404   2.022       .  S
O1401      C1406   1.277       .  A
O1402     Cu1404   2.005       .  S
O1402      C1405   1.281       .  A
Cu1403    Cu1404   2.368       .  S
O1409     Cu1417   2.018       .  S
O1409      C1419   1.277       .  A
O1410     Cu1417   2.008       .  S
O1410      C1420   1.281       .  A
O1411     Cu1417   2.007       .  S
O1411      C1421   1.281       .  A
O1412     Cu1417   2.019       .  S
O1412      C1422   1.277       .  A
O1413     Cu1418   2.007       .  S
O1413      C1422   1.281       .  A
O1414     Cu1418   2.019       .  S
O1414      C1421   1.277       .  A
O1415     Cu1418   2.021       .  S
O1415      C1420   1.277       .  A
O1416     Cu1418   2.008       .  S
O1416      C1419   1.281       .  A
Cu1417    Cu1418   2.368       .  S
C1423      C1424   1.404       .  A
C1423      C1428   1.395       .  A
C1423      H1430   1.081       .  S
C1424      C1425   1.406       .  A
C1425      C1426   1.394       .  A
C1425      F1432   1.358       .  S
C1426      C1427   1.404       .  A
C1426      H1431   1.081       .  S
C1427      C1428   1.406       .  A
C1428      F1429   1.358       .  S
C1433      C1434   1.402       .  A
C1433      C1438   1.395       .  A
C1433      H1440   1.085       .  S
C1434      C1435   1.406       .  A
C1435      C1436   1.395       .  A
C1435      F1442   1.358       .  S
C1436      C1437   1.403       .  A
C1436      H1441   1.085       .  S
C1437      C1438   1.406       .  A
C1438      F1439   1.358       .  S
C1443      C1448   1.392       .  A
C1443      H1450   1.083       .  S
C1444      C1445   1.406       .  A
C1445      C1446   1.393       .  A
C1445      F1452   1.358       .  S
C1446      C1447   1.404       .  A
C1446      H1451   1.083       .  S
C1448      F1449   1.358       .  S
C1453      C1454   1.402       .  A
C1453      C1458   1.394       .  A
C1453      H1460   1.083       .  S
C1454      C1455   1.406       .  A
C1455      C1456   1.394       .  A
C1455      F1462   1.358       .  S
C1456      C1457   1.403       .  A
C1456      H1461   1.083       .  S
C1457      C1458   1.406       .  A
C1458      F1459   1.358       .  S
C1463      C1464   1.404       .  A
C1463      C1468   1.394       .  A
C1463      H1470   1.081       .  S
C1464      C1465   1.405       .  A
C1465      C1466   1.394       .  A
C1465      F1472   1.358       .  S
C1466      C1467   1.403       .  A
C1466      H1471   1.081       .  S
C1467      C1468   1.406       .  A
C1468      F1469   1.358       .  S
C1473      C1478   1.394       .  A
C1473      H1480   1.081       .  S
C1474      C2987   1.404       .  A
C1475      C2986   1.404       .  A
C1475      C2988   1.393       .  A
C1475      F1482   1.358       .  S
C1476      C2987   1.393       .  A
C1476      C1477   1.403       .  A
C1476      H2993   1.081   1_455  S
C1478      F1479   1.358       .  S
H1481      C2988   1.081       .  S
C1483      C1488   1.392       .  A
C1483      H1490   1.084       .  S
C1484      C1485   1.406       .  A
C1485      C1486   1.393       .  A
C1485      F1492   1.358       .  S
C1486      C1487   1.403   1_556  A
C1486      H1491   1.084       .  S
C1488      F1489   1.358       .  S
C1493      C1494   1.404       .  A
C1493      C1498   1.394       .  A
C1493      H1500   1.083       .  S
C1494      C1495   1.406       .  A
C1495      C1496   1.395       .  A
C1495      F1502   1.358       .  S
C1496      C1497   1.404       .  A
C1496      H1501   1.083       .  S
C1497      C1498   1.405       .  A
C1498      F1499   1.358       .  S
C1503      C1504   1.404       .  A
C1503      C1508   1.394       .  A
C1503      H1510   1.083       .  S
C1504      C1505   1.404       .  A
C1505      C1506   1.394       .  A
C1505      F1512   1.357       .  S
C1506      C1507   1.403       .  A
C1506      H1511   1.083       .  S
C1507      C1508   1.405       .  A
C1508      F1509   1.358       .  S
C1513      C1514   1.395       .  A
C1513      C1518   1.392       .  A
C1513      C1882   1.473       .  S
C1514      C1515   1.405       .  A
C1514      H1519   1.083       .  S
C1515      C1576   1.489       .  S
C1516      C1517   1.417       .  A
C1516      H1520   1.082   1_455  S
C1517      C1675   1.486   1_455  S
C1518      H1521   1.083       .  S
C1522      C2279   1.393       .  A
C1522      C2283   1.393       .  A
C1522      C1885   1.472       .  S
C1523      C2278   1.393       .  A
C1523      C1524   1.403   1_565  A
C1523      H2284   1.083       .  S
C1524      C1525   1.417       .  A
C1524      C1562   1.487       .  S
C1525      C1526   1.418       .  A
C1525      H1529   1.082       .  S
C1526      C1527   1.405       .  A
C1526      C1642   1.486       .  S
C1527      C2278   1.393   1_545  A
C1527      H1530   1.083       .  S
H1528      C2279   1.083       .  S
C1531      C1872   1.475       .  S
C1532      C1533   1.405       .  A
C1533      C1534   1.419       .  A
C1533      C1575   1.489       .  S
C1534      C1535   1.418       .  A
C1534      H1538   1.082       .  S
C1535      C1536   1.404       .  A
C1535      C1771   1.488       .  S
C1536      H1539   1.083       .  S
C1540      C1541   1.394       .  A
C1540      C1545   1.393       .  A
C1540      C1875   1.475       .  S
C1541      C2298   1.405       .  A
C1541      H1546   1.083       .  S
C1542      C2297   1.405       .  A
C1542      C1543   1.419       .  A
C1542      C1739   1.490       .  S
C1543      C2300   1.419       .  A
C1543      H1547   1.082       .  S
C1544      C2299   1.419   1_545  A
C1544      C1545   1.404       .  A
C1544      C1561   1.488       .  S
C1545      H1548   1.083       .  S
O1549     Cu1557   2.020       .  S
O1549      C1559   1.277       .  A
O1550     Cu1557   2.009       .  S
O1550      C1560   1.281       .  A
O1551     Cu1557   2.009       .  S
O1551      C1561   1.281       .  A
O1552     Cu1557   2.020       .  S
O1552      C1562   1.277       .  A
O1553     Cu2314   2.010   1_545  S
O1553      C1562   1.281       .  A
O1554     Cu1558   2.024       .  S
O1554      C2317   1.277       .  A
O1555     Cu1558   2.022       .  S
O1555      C2316   1.277       .  A
O1556     Cu2314   2.010   1_545  S
O1556      C1559   1.281       .  A
Cu1557    Cu2314   2.368   1_545  S
Cu1558     O2309   2.010       .  S
Cu1558     O2312   2.010       .  S
Cu1558    Cu2313   2.368       .  S
C1559      C1656   1.487       .  S
C1560      C1745   1.487       .  S
C1560      O2311   1.277   1_545  A
C1561      O2310   1.277   1_545  A
O1563     Cu1571   2.009       .  S
O1563      C1573   1.281       .  A
O1564     Cu1571   2.022       .  S
O1564      C1574   1.277       .  A
O1565     Cu1571   2.024       .  S
O1565      C1575   1.277       .  A
O1566     Cu1571   2.012       .  S
O1566      C1576   1.281       .  A
O1567     Cu1572   2.024       .  S
O1568      C1575   1.281       .  A
O1569      C1574   1.281       .  A
O1570      C1573   1.277       .  A
C1573      C1617   1.487       .  S
C1574      C1713   1.488       .  S
C1577      C1578   1.392   1_556  A
C1577      C1960   1.394       .  A
C1577      C2240   1.472       .  S
C1578      C1579   1.402       .  A
C1578      H1583   1.083       .  S
C1579      C1580   1.415   1_554  A
C1579      C1690   1.482       .  S
C1580      C1959   1.415       .  A
C1580      H1584   1.083       .  S
C1581      C1958   1.415       .  A
C1581      C1582   1.403       .  A
C1581      C2493   1.483   1_545  S
C1582      C1955   1.394       .  A
C1582      H2341   1.084   1_545  S
H1585      C2338   1.084       .  S
C1586      C1587   1.392       .  A
C1586      C1969   1.393       .  A
C1586      C1865   1.472       .  S
C1587      C1588   1.402       .  A
C1587      H2348   1.083   1_545  S
C1588      C1589   1.415       .  A
C1588      C2542   1.483   1_545  S
C1589      C1968   1.416       .  A
C1589      H1593   1.083       .  S
C1590      C1967   1.416       .  A
C1590      C1591   1.404       .  A
C1590      C1644   1.484       .  S
C1591      C1964   1.393       .  A
C1591      H1594   1.084       .  S
H1592      C2343   1.083       .  S
C1595      C1974   1.393   1_554  A
C1595      C1600   1.394       .  A
C1595      C1855   1.471       .  S
C1596      C1973   1.393       .  A
C1596      C1597   1.404       .  A
C1596      H1601   1.084       .  S
C1597      C1976   1.416       .  A
C1597      C1769   1.485       .  S
C1598      C1975   1.416       .  A
C1598      C1599   1.416   1_556  A
C1598      H1602   1.083       .  S
C1599      C1600   1.403       .  A
C1604      C1983   1.393       .  A
C1604      C1609   1.393       .  A
C1604      C2230   1.471       .  S
C1605      C1982   1.393       .  A
C1605      C1606   1.403       .  A
C1606      C1985   1.416   1_554  A
C1607      C1984   1.416       .  A
C1607      C1608   1.416       .  A
C1607      H1611   1.083       .  S
C1608      C1609   1.403       .  A
C1608      C1783   1.485       .  S
C1609      H1612   1.083       .  S
C1613      C1614   1.393       .  A
C1613      C1618   1.394       .  A
C1613      C1842   1.474       .  S
C1614      H1619   1.083       .  S
C1615      C1616   1.417       .  A
C1615      C1689   1.484   1_455  S
C1616      H1620   1.083   1_455  S
C1617      C1618   1.404       .  A
C1618      H1621   1.084       .  S
C1622      C1623   1.393       .  A
C1622      C1627   1.394       .  A
C1622      C1845   1.473       .  S
C1623      C1624   1.403       .  A
C1623      H1628   1.084       .  S
C1624      C1625   1.416       .  A
C1624      C1643   1.484       .  S
C1625      C1626   1.416       .  A
C1625      H1629   1.083       .  S
C1626      C1627   1.404       .  A
C1626      C1797   1.486       .  S
C1627      H1630   1.083       .  S
O1631     Cu1639   2.018       .  S
O1631      C1641   1.276       .  A
O1632     Cu1639   2.005       .  S
O1632      C1642   1.281       .  A
O1633     Cu1639   2.003       .  S
O1633      C1643   1.281       .  A
O1634     Cu1639   2.016       .  S
O1634      C1644   1.277       .  A
O1635     Cu1640   2.005       .  S
O1635      C1644   1.281       .  A
O1636     Cu1640   2.018       .  S
O1636      C1643   1.277       .  A
O1637     Cu1640   2.021       .  S
O1637      C1642   1.277       .  A
O1638     Cu1640   2.008       .  S
O1638      C1641   1.281       .  A
Cu1639    Cu1640   2.368       .  S
C1641      C1693   1.486       .  S
C1645      C1646   1.393       .  A
C1645      C1650   1.394       .  A
C1645      C1832   1.473       .  S
C1646      C1647   1.403       .  A
C1646      H1651   1.083       .  S
C1647      C1648   1.416       .  A
C1647      C1800   1.486       .  S
C1648      C1649   1.417       .  A
C1648      H1652   1.083       .  S
C1649      C1650   1.404       .  A
C1649      C1674   1.486       .  S
C1650      H1653   1.084       .  S
C1654      C1655   1.395       .  A
C1654      C2415   1.394       .  A
C1654      C1835   1.474       .  S
C1655      C2412   1.405       .  A
C1655      H1660   1.084       .  S
C1656      C2411   1.405   1_545  A
C1656      C1657   1.417       .  A
C1657      C1658   1.416       .  A
C1657      H1661   1.083       .  S
C1658      C1659   1.403       .  A
C1658      C1688   1.486       .  S
C1659      C2410   1.394   1_545  A
C1659      H1662   1.083       .  S
O1663     Cu1671   2.018       .  S
O1663      C1673   1.277       .  A
O1664     Cu1671   2.007       .  S
O1664      C1674   1.281       .  A
O1665     Cu1671   2.006       .  S
O1665      C1675   1.281       .  A
O1666     Cu1671   2.017       .  S
O1666      C1676   1.276       .  A
O1667     Cu1672   2.007       .  S
O1667      C1676   1.281       .  A
O1668     Cu1672   2.019       .  S
O1668      C1675   1.277       .  A
O1669     Cu1672   2.020       .  S
O1669      C1674   1.277       .  A
O1670     Cu1672   2.008       .  S
O1670      C1673   1.281       .  A
Cu1671    Cu1672   2.368       .  S
C1676      C1702   1.485       .  S
O1677     Cu1685   2.007       .  S
O1677      C1687   1.281       .  A
O1678     Cu1685   2.019       .  S
O1678      C1688   1.277       .  A
O1679     Cu1685   2.015       .  S
O1679      C1689   1.276       .  A
O1680     Cu1685   2.001       .  S
O1680      C1690   1.280       .  A
O1681     Cu1686   2.015       .  S
O1681      C1690   1.276       .  A
O1682     Cu1686   2.005       .  S
O1682      C1689   1.281       .  A
O1683     Cu1686   2.008       .  S
O1683      C1688   1.281       .  A
O1684     Cu1686   2.019       .  S
O1684      C1687   1.277       .  A
Cu1685    Cu1686   2.369       .  S
C1691      C2070   1.392       .  A
C1691      C1696   1.393       .  A
C1691      C1822   1.472       .  S
C1692      C2069   1.392   1_554  A
C1692      C1693   1.403       .  A
C1692      H1697   1.083       .  S
C1693      C2072   1.418       .  A
C1694      C2071   1.418       .  A
C1694      C1695   1.418       .  A
C1694      H1698   1.082       .  S
C1695      C1696   1.403       .  A
C1695      C1772   1.486       .  S
C1696      H1699   1.083       .  S
C1700      C2079   1.392       .  A
C1700      C1705   1.394       .  A
C1700      C1825   1.472       .  S
C1701      C2078   1.392       .  A
C1701      C1702   1.403       .  A
C1701      H1706   1.083       .  S
C1702      C2081   1.417       .  A
C1703      C2080   1.417       .  A
C1703      C1704   1.418       .  A
C1703      H1707   1.082       .  S
C1704      C1705   1.404       .  A
C1704      C1740   1.487       .  S
C1705      H1708   1.083       .  S
C1709      C1714   1.394       .  A
C1709      C1812   1.473       .  S
C1710      C1711   1.404       .  A
C1710      H1715   1.083       .  S
C1711      C1712   1.417       .  A
C1711      C1785   1.487       .  S
C1712      C1713   1.418       .  A
C1712      H1716   1.083       .  S
C1714      H1717   1.084       .  S
C1718      C1719   1.394       .  A
C1718      C1723   1.394       .  A
C1718      C1815   1.474       .  S
C1719      C1720   1.405       .  A
C1719      H1724   1.084       .  S
C1720      C1721   1.417       .  A
C1720      C1738   1.486       .  S
C1721      C1722   1.416       .  A
C1721      H1725   1.083       .  S
C1722      C1723   1.404       .  A
C1722      C1798   1.486       .  S
C1723      H1726   1.083       .  S
O1727     Cu1735   2.014       .  S
O1727      C1737   1.276       .  A
O1728     Cu1735   2.005       .  S
O1728      C1738   1.280       .  A
O1729     Cu1735   2.012       .  S
O1729      C1739   1.282       .  A
O1730     Cu1735   2.021       .  S
O1730      C1740   1.277       .  A
O1731     Cu1736   2.011       .  S
O1731      C1740   1.281       .  A
O1732     Cu1736   2.025       .  S
O1732      C1739   1.277       .  A
O1733     Cu1736   2.021       .  S
O1733      C1738   1.277       .  A
O1734     Cu1736   2.007       .  S
O1734      C1737   1.281       .  A
Cu1735    Cu1736   2.368       .  S
C1737      C2337   1.483       .  S
C1741      C1742   1.395       .  A
C1741      C1746   1.395       .  A
C1741      C1802   1.477       .  S
C1742      C2499   1.404       .  A
C1742      H1747   1.083       .  S
C1743      C2498   1.404       .  A
C1743      C1744   1.417       .  A
C1743      C1784   1.488       .  S
C1744      C2501   1.417       .  A
C1744      H1748   1.083       .  S
C1745      C2500   1.417       .  A
C1745      C1746   1.404       .  A
C1746      H1749   1.084       .  S
C1750      C1751   1.395       .  A
C1750      C1755   1.394       .  A
C1750      C1805   1.477       .  S
C1751      C1752   1.405       .  A
C1751      H1756   1.084       .  S
C1752      C1753   1.417       .  A
C1752      C1770   1.486       .  S
C1753      C1754   1.416       .  A
C1753      H1757   1.083       .  S
C1754      C1755   1.403       .  A
C1754      C1799   1.486       .  S
C1755      H1758   1.083       .  S
O1759     Cu1767   2.007       .  S
O1759      C1769   1.281       .  A
O1760     Cu1767   2.020       .  S
O1760      C1770   1.277       .  A
O1761     Cu1767   2.022       .  S
O1761      C1771   1.277       .  A
O1762     Cu1767   2.009       .  S
O1762      C1772   1.281       .  A
O1763     Cu1768   2.019       .  S
O1763      C1772   1.277       .  A
O1764     Cu1768   2.009       .  S
O1764      C1771   1.281       .  A
O1765     Cu1768   2.008       .  S
O1765      C1770   1.281       .  A
O1766     Cu1768   2.018       .  S
O1766      C1769   1.277       .  A
Cu1767    Cu1768   2.368       .  S
O1773     Cu1781   2.019       .  S
O1773      C1783   1.277       .  A
O1774     Cu1781   2.009       .  S
O1774      C1784   1.281       .  A
O1775     Cu1781   2.007       .  S
O1775      C1785   1.281       .  A
O1776     Cu1781   2.015       .  S
O1776      C1786   1.276       .  A
O1777     Cu1782   2.003       .  S
O1777      C1786   1.281       .  A
O1778     Cu1782   2.021       .  S
O1778      C1785   1.277       .  A
O1779     Cu1782   2.022       .  S
O1779      C1784   1.277       .  A
O1780     Cu1782   2.005       .  S
O1780      C1783   1.281       .  A
Cu1781    Cu1782   2.368       .  S
C1786      C2344   1.483       .  S
O1787     Cu1795   2.018       .  S
O1787      C1797   1.277       .  A
O1788     Cu1795   2.008       .  S
O1788      C1798   1.281       .  A
O1789     Cu1795   2.007       .  S
O1789      C1799   1.281       .  A
O1790     Cu1795   2.019       .  S
O1790      C1800   1.277       .  A
O1791     Cu1796   2.007       .  S
O1791      C1800   1.281       .  A
O1792     Cu1796   2.019       .  S
O1792      C1799   1.277       .  A
O1793     Cu1796   2.021       .  S
O1793      C1798   1.277       .  A
O1794     Cu1796   2.008       .  S
O1794      C1797   1.281       .  A
Cu1795    Cu1796   2.368       .  S
C1801      C1802   1.404       .  A
C1801      C1806   1.395       .  A
C1801      H1808   1.081       .  S
C1802      C1803   1.406       .  A
C1803      C1804   1.394       .  A
C1803      F1810   1.358       .  S
C1804      C1805   1.404       .  A
C1804      H1809   1.081       .  S
C1805      C1806   1.406       .  A
C1806      F1807   1.358       .  S
C1811      C1812   1.402       .  A
C1811      C1816   1.395       .  A
C1811      H1818   1.085       .  S
C1812      C1813   1.406       .  A
C1813      C1814   1.395       .  A
C1813      F1820   1.358       .  S
C1814      C1815   1.403       .  A
C1814      H1819   1.085       .  S
C1815      C1816   1.406       .  A
C1816      F1817   1.358       .  S
C1821      C2200   1.403   1_554  A
C1821      C1826   1.392       .  A
C1821      H1828   1.083       .  S
C1822      C2199   1.403       .  A
C1822      C1823   1.406       .  A
C1823      C1824   1.393       .  A
C1823      F1830   1.358       .  S
C1824      C1825   1.404       .  A
C1824      H1829   1.083       .  S
C1825      C2204   1.405       .  A
C1826      C2203   1.405   1_554  A
C1826      F1827   1.357       .  S
C1831      C1832   1.402       .  A
C1831      C1836   1.394       .  A
C1831      H1838   1.084       .  S
C1832      C1833   1.406       .  A
C1833      C1834   1.394       .  A
C1833      F1840   1.358       .  S
C1834      C1835   1.403       .  A
C1834      H1839   1.083       .  S
C1835      C1836   1.406       .  A
C1836      F1837   1.358       .  S
C1841      C1842   1.404       .  A
C1841      C1846   1.394       .  A
C1841      H1848   1.081       .  S
C1842      C1843   1.405       .  A
C1843      C1844   1.394       .  A
C1843      F1850   1.358       .  S
C1844      C1845   1.403       .  A
C1844      H1849   1.081       .  S
C1845      C1846   1.406       .  A
C1846      F1847   1.358       .  S
C1851      C2230   1.403       .  A
C1851      C1856   1.394       .  A
C1851      H1858   1.081       .  S
C1852      C2229   1.403       .  A
C1852      C1982   1.471       .  S
C1853      F1860   1.358   1_455  S
C1854      C1855   1.403   1_556  A
C1855      C2234   1.405       .  A
C1856      C2233   1.405       .  A
C1856      F1857   1.358       .  S
C1861      C2996   1.402   1_554  A
C1861      C1866   1.392       .  A
C1861      H1868   1.084       .  S
C1862      C2995   1.402   1_545  A
C1862      C1863   1.406       .  A
C1862      C1955   1.472       .  S
C1863      C1864   1.393       .  A
C1863      F1870   1.358       .  S
C1864      C1865   1.403       .  A
C1864      H1869   1.084       .  S
C1865      C3000   1.406   1_545  A
C1866      C2999   1.406       .  A
C1866      F1867   1.358       .  S
C1871      C1872   1.404       .  A
C1871      C1876   1.394       .  A
C1871      H1878   1.083       .  S
C1872      C1873   1.406       .  A
C1873      C1874   1.395       .  A
C1873      F1880   1.358       .  S
C1874      C1875   1.404       .  A
C1874      H1879   1.083       .  S
C1875      C1876   1.405       .  A
C1876      F1877   1.358       .  S
C1881      C1882   1.404       .  A
C1881      C1886   1.394       .  A
C1881      H1888   1.083       .  S
C1882      C1883   1.404       .  A
C1883      C1884   1.394       .  A
C1883      F1890   1.357       .  S
C1884      C1885   1.403       .  A
C1884      H1889   1.083       .  S
C1885      C1886   1.405       .  A
C1886      F1887   1.358       .  S
C1891      C1892   1.395       .  A
C1891      C1896   1.392       .  A
C1891      C2260   1.473       .  S
C1892      C1893   1.405       .  A
C1892      H1897   1.083       .  S
C1893      C1954   1.489       .  S
C1894      C1895   1.417       .  A
C1894      H1898   1.082   1_455  S
C1895      C2053   1.486   1_455  S
C1896      H1899   1.083       .  S
C1900      C2657   1.393       .  A
C1900      C2661   1.393       .  A
C1900      C2263   1.472       .  S
C1901      C2656   1.393       .  A
C1901      C1902   1.403   1_565  A
C1901      H2662   1.083       .  S
C1902      C1903   1.417       .  A
C1902      C1940   1.487       .  S
C1903      C1904   1.418       .  A
C1903      H1907   1.082       .  S
C1904      C1905   1.405       .  A
C1904      C2020   1.486       .  S
C1905      C2656   1.393   1_545  A
C1905      H1908   1.083       .  S
H1906      C2657   1.083       .  S
C1909      C2250   1.475       .  S
C1910      C1911   1.405       .  A
C1911      C1912   1.419       .  A
C1911      C1953   1.489       .  S
C1912      C1913   1.418       .  A
C1912      H1916   1.082       .  S
C1913      C1914   1.404       .  A
C1913      C2149   1.488       .  S
C1914      H1917   1.083       .  S
C1918      C1919   1.394       .  A
C1918      C1923   1.393       .  A
C1918      C2253   1.475       .  S
C1919      C2676   1.405       .  A
C1919      H1924   1.083       .  S
C1920      C2675   1.405       .  A
C1920      C1921   1.419       .  A
C1920      C2117   1.490       .  S
C1921      C2678   1.419       .  A
C1921      H1925   1.082       .  S
C1922      C2677   1.419   1_545  A
C1922      C1923   1.404       .  A
C1922      C1939   1.488       .  S
C1923      H1926   1.083       .  S
O1927     Cu1935   2.020       .  S
O1927      C1937   1.277       .  A
O1928     Cu1935   2.009       .  S
O1928      C1938   1.281       .  A
O1929     Cu1935   2.009       .  S
O1929      C1939   1.281       .  A
O1930     Cu1935   2.020       .  S
O1930      C1940   1.277       .  A
O1931     Cu2692   2.010   1_545  S
O1931      C1940   1.281       .  A
O1932     Cu1936   2.024       .  S
O1932      C2695   1.277       .  A
O1933     Cu1936   2.022       .  S
O1933      C2694   1.277       .  A
O1934     Cu2692   2.010   1_545  S
O1934      C1937   1.281       .  A
Cu1935    Cu2692   2.368   1_545  S
Cu1936     O2687   2.010       .  S
Cu1936     O2690   2.010       .  S
Cu1936    Cu2691   2.368       .  S
C1937      C2034   1.487       .  S
C1938      C2123   1.487       .  S
C1938      O2689   1.277   1_545  A
C1939      O2688   1.277   1_545  A
O1941     Cu1949   2.009       .  S
O1941      C1951   1.281       .  A
O1942     Cu1949   2.022       .  S
O1942      C1952   1.277       .  A
O1943     Cu1949   2.024       .  S
O1943      C1953   1.277       .  A
O1944     Cu1949   2.012       .  S
O1944      C1954   1.281       .  A
O1945     Cu1950   2.024       .  S
O1946      C1953   1.281       .  A
O1947      C1952   1.281       .  A
O1948      C1951   1.277       .  A
C1951      C1995   1.487       .  S
C1952      C2091   1.488       .  S
C1955      C1956   1.392       .  A
C1956      C1957   1.402       .  A
C1956      H1961   1.083       .  S
C1957      C1958   1.415       .  A
C1957      C2068   1.482       .  S
C1958      H1962   1.083       .  S
C1959      C1960   1.403       .  A
C1959      C2871   1.483   1_545  S
C1960      H2719   1.084   1_545  S
H1963      C2716   1.084       .  S
C1964      C1965   1.392   1_554  A
C1964      C2243   1.472       .  S
C1965      C1966   1.402       .  A
C1965      H2726   1.083   1_545  S
C1966      C1967   1.415   1_556  A
C1966      C2920   1.483   1_545  S
C1967      H1971   1.083       .  S
C1968      C1969   1.404       .  A
C1968      C2022   1.484       .  S
C1969      H1972   1.084       .  S
H1970      C2721   1.083       .  S
C1973      C1978   1.394       .  A
C1973      C2233   1.471       .  S
C1974      C1975   1.404       .  A
C1974      H1979   1.084       .  S
C1975      C2147   1.485       .  S
C1976      C1977   1.416       .  A
C1976      H1980   1.083       .  S
C1977      C1978   1.403       .  A
C1982      C1987   1.393   1_554  A
C1983      C1984   1.403       .  A
C1985      C1986   1.416       .  A
C1985      H1989   1.083       .  S
C1986      C1987   1.403       .  A
C1986      C2161   1.485       .  S
C1987      H1990   1.083       .  S
C1991      C1992   1.393       .  A
C1991      C1996   1.394       .  A
C1991      C2220   1.474       .  S
C1992      H1997   1.083       .  S
C1993      C1994   1.417       .  A
C1993      C2067   1.484   1_455  S
C1994      H1998   1.083   1_455  S
C1995      C1996   1.404       .  A
C1996      H1999   1.084       .  S
C2000      C2001   1.393       .  A
C2000      C2005   1.394       .  A
C2000      C2223   1.473       .  S
C2001      C2002   1.403       .  A
C2001      H2006   1.084       .  S
C2002      C2003   1.416       .  A
C2002      C2021   1.484       .  S
C2003      C2004   1.416       .  A
C2003      H2007   1.083       .  S
C2004      C2005   1.404       .  A
C2004      C2175   1.486       .  S
C2005      H2008   1.083       .  S
O2009     Cu2017   2.018       .  S
O2009      C2019   1.276       .  A
O2010     Cu2017   2.005       .  S
O2010      C2020   1.281       .  A
O2011     Cu2017   2.003       .  S
O2011      C2021   1.281       .  A
O2012     Cu2017   2.016       .  S
O2012      C2022   1.277       .  A
O2013     Cu2018   2.005       .  S
O2013      C2022   1.281       .  A
O2014     Cu2018   2.018       .  S
O2014      C2021   1.277       .  A
O2015     Cu2018   2.021       .  S
O2015      C2020   1.277       .  A
O2016     Cu2018   2.008       .  S
O2016      C2019   1.281       .  A
Cu2017    Cu2018   2.368       .  S
C2019      C2071   1.486       .  S
C2023      C2024   1.393       .  A
C2023      C2028   1.394       .  A
C2023      C2210   1.473       .  S
C2024      C2025   1.403       .  A
C2024      H2029   1.083       .  S
C2025      C2026   1.417       .  A
C2025      C2178   1.486       .  S
C2026      C2027   1.417       .  A
C2026      H2030   1.083       .  S
C2027      C2028   1.404       .  A
C2027      C2052   1.486       .  S
C2028      H2031   1.084       .  S
C2032      C2033   1.395       .  A
C2032      C2793   1.394       .  A
C2032      C2213   1.474       .  S
C2033      C2790   1.405       .  A
C2033      H2038   1.084       .  S
C2034      C2789   1.405   1_545  A
C2034      C2035   1.417       .  A
C2035      C2036   1.416       .  A
C2035      H2039   1.083       .  S
C2036      C2037   1.403       .  A
C2036      C2066   1.486       .  S
C2037      C2788   1.394   1_545  A
C2037      H2040   1.083       .  S
O2041     Cu2049   2.018       .  S
O2041      C2051   1.277       .  A
O2042     Cu2049   2.007       .  S
O2042      C2052   1.281       .  A
O2043     Cu2049   2.006       .  S
O2043      C2053   1.281       .  A
O2044     Cu2049   2.017       .  S
O2044      C2054   1.276       .  A
O2045     Cu2050   2.007       .  S
O2045      C2054   1.281       .  A
O2046     Cu2050   2.019       .  S
O2046      C2053   1.277       .  A
O2047     Cu2050   2.020       .  S
O2047      C2052   1.277       .  A
O2048     Cu2050   2.008       .  S
O2048      C2051   1.281       .  A
Cu2049    Cu2050   2.368       .  S
C2054      C2080   1.485       .  S
O2055     Cu2063   2.007       .  S
O2055      C2065   1.281       .  A
O2056     Cu2063   2.019       .  S
O2056      C2066   1.277       .  A
O2057     Cu2063   2.015       .  S
O2057      C2067   1.276       .  A
O2058     Cu2063   2.001       .  S
O2058      C2068   1.280       .  A
O2059     Cu2064   2.015       .  S
O2059      C2068   1.276       .  A
O2060     Cu2064   2.005       .  S
O2060      C2067   1.281       .  A
O2061     Cu2064   2.008       .  S
O2061      C2066   1.281       .  A
O2062     Cu2064   2.019       .  S
O2062      C2065   1.277       .  A
Cu2063    Cu2064   2.369       .  S
C2069      C2074   1.393       .  A
C2069      C2200   1.472       .  S
C2070      C2071   1.403       .  A
C2070      H2075   1.083       .  S
C2072      C2073   1.418   1_554  A
C2072      H2076   1.082       .  S
C2073      C2074   1.403       .  A
C2073      C2150   1.486       .  S
C2074      H2077   1.083       .  S
C2078      C2083   1.394   1_554  A
C2078      C2203   1.472   1_554  S
C2079      C2080   1.403       .  A
C2079      H2084   1.083       .  S
C2081      C2082   1.418   1_554  A
C2081      H2085   1.082       .  S
C2082      C2083   1.404       .  A
C2082      C2118   1.487       .  S
C2083      H2086   1.083       .  S
C2087      C2092   1.394       .  A
C2087      C2190   1.473       .  S
C2088      C2089   1.404       .  A
C2088      H2093   1.083       .  S
C2089      C2090   1.417       .  A
C2089      C2163   1.487       .  S
C2090      C2091   1.418       .  A
C2090      H2094   1.083       .  S
C2092      H2095   1.084       .  S
C2096      C2097   1.394       .  A
C2096      C2101   1.394       .  A
C2096      C2193   1.474       .  S
C2097      C2098   1.405       .  A
C2097      H2102   1.084       .  S
C2098      C2099   1.417       .  A
C2098      C2116   1.486       .  S
C2099      C2100   1.416       .  A
C2099      H2103   1.083       .  S
C2100      C2101   1.404       .  A
C2100      C2176   1.486       .  S
C2101      H2104   1.083       .  S
O2105     Cu2113   2.014       .  S
O2105      C2115   1.276       .  A
O2106     Cu2113   2.005       .  S
O2106      C2116   1.280       .  A
O2107     Cu2113   2.012       .  S
O2107      C2117   1.282       .  A
O2108     Cu2113   2.021       .  S
O2108      C2118   1.277       .  A
O2109     Cu2114   2.011       .  S
O2109      C2118   1.281       .  A
O2110     Cu2114   2.025       .  S
O2110      C2117   1.277       .  A
O2111     Cu2114   2.021       .  S
O2111      C2116   1.277       .  A
O2112     Cu2114   2.007       .  S
O2112      C2115   1.281       .  A
Cu2113    Cu2114   2.368       .  S
C2115      C2715   1.483       .  S
C2119      C2120   1.395       .  A
C2119      C2124   1.395       .  A
C2119      C2180   1.477       .  S
C2120      C2877   1.404       .  A
C2120      H2125   1.083       .  S
C2121      C2876   1.404       .  A
C2121      C2122   1.417       .  A
C2121      C2162   1.488       .  S
C2122      C2879   1.417       .  A
C2122      H2126   1.083       .  S
C2123      C2878   1.417       .  A
C2123      C2124   1.404       .  A
C2124      H2127   1.084       .  S
C2128      C2129   1.395       .  A
C2128      C2133   1.394       .  A
C2128      C2183   1.477       .  S
C2129      C2130   1.405       .  A
C2129      H2134   1.084       .  S
C2130      C2131   1.417       .  A
C2130      C2148   1.486       .  S
C2131      C2132   1.416       .  A
C2131      H2135   1.083       .  S
C2132      C2133   1.403       .  A
C2132      C2177   1.486       .  S
C2133      H2136   1.083       .  S
O2137     Cu2145   2.007       .  S
O2137      C2147   1.281       .  A
O2138     Cu2145   2.020       .  S
O2138      C2148   1.277       .  A
O2139     Cu2145   2.022       .  S
O2139      C2149   1.277       .  A
O2140     Cu2145   2.009       .  S
O2140      C2150   1.281       .  A
O2141     Cu2146   2.019       .  S
O2141      C2150   1.277       .  A
O2142     Cu2146   2.009       .  S
O2142      C2149   1.281       .  A
O2143     Cu2146   2.008       .  S
O2143      C2148   1.281       .  A
O2144     Cu2146   2.018       .  S
O2144      C2147   1.277       .  A
Cu2145    Cu2146   2.368       .  S
O2151     Cu2159   2.019       .  S
O2151      C2161   1.277       .  A
O2152     Cu2159   2.009       .  S
O2152      C2162   1.281       .  A
O2153     Cu2159   2.007       .  S
O2153      C2163   1.281       .  A
O2154     Cu2159   2.015       .  S
O2154      C2164   1.276       .  A
O2155     Cu2160   2.003       .  S
O2155      C2164   1.281       .  A
O2156     Cu2160   2.021       .  S
O2156      C2163   1.277       .  A
O2157     Cu2160   2.022       .  S
O2157      C2162   1.277       .  A
O2158     Cu2160   2.005       .  S
O2158      C2161   1.281       .  A
Cu2159    Cu2160   2.368       .  S
C2164      C2722   1.483       .  S
O2165     Cu2173   2.018       .  S
O2165      C2175   1.277       .  A
O2166     Cu2173   2.008       .  S
O2166      C2176   1.281       .  A
O2167     Cu2173   2.007       .  S
O2167      C2177   1.281       .  A
O2168     Cu2173   2.019       .  S
O2168      C2178   1.277       .  A
O2169     Cu2174   2.007       .  S
O2169      C2178   1.281       .  A
O2170     Cu2174   2.019       .  S
O2170      C2177   1.277       .  A
O2171     Cu2174   2.021       .  S
O2171      C2176   1.277       .  A
O2172     Cu2174   2.008       .  S
O2172      C2175   1.281       .  A
Cu2173    Cu2174   2.368       .  S
C2179      C2180   1.404       .  A
C2179      C2184   1.395       .  A
C2179      H2186   1.081       .  S
C2180      C2181   1.406       .  A
C2181      C2182   1.394       .  A
C2181      F2188   1.358       .  S
C2182      C2183   1.404       .  A
C2182      H2187   1.081       .  S
C2183      C2184   1.406       .  A
C2184      F2185   1.358       .  S
C2189      C2190   1.402       .  A
C2189      C2194   1.395       .  A
C2189      H2196   1.085       .  S
C2190      C2191   1.406       .  A
C2191      C2192   1.395       .  A
C2191      F2198   1.358       .  S
C2192      C2193   1.403       .  A
C2192      H2197   1.085       .  S
C2193      C2194   1.406       .  A
C2194      F2195   1.358       .  S
C2199      C2204   1.392       .  A
C2199      H2206   1.083       .  S
C2200      C2201   1.406       .  A
C2201      C2202   1.393       .  A
C2201      F2208   1.358       .  S
C2202      C2203   1.404       .  A
C2202      H2207   1.083       .  S
C2204      F2205   1.358       .  S
C2209      C2210   1.402       .  A
C2209      C2214   1.394       .  A
C2209      H2216   1.083       .  S
C2210      C2211   1.406       .  A
C2211      C2212   1.394       .  A
C2211      F2218   1.358       .  S
C2212      C2213   1.403       .  A
C2212      H2217   1.083       .  S
C2213      C2214   1.406       .  A
C2214      F2215   1.358       .  S
C2219      C2220   1.404       .  A
C2219      C2224   1.394       .  A
C2219      H2226   1.081       .  S
C2220      C2221   1.405       .  A
C2221      C2222   1.394       .  A
C2221      F2228   1.358       .  S
C2222      C2223   1.403       .  A
C2222      H2227   1.081       .  S
C2223      C2224   1.406       .  A
C2224      F2225   1.358       .  S
C2229      C2234   1.394       .  A
C2229      H2236   1.081       .  S
C2231      F2238   1.358   1_455  S
C2232      C2233   1.403       .  A
C2234      F2235   1.358       .  S
C2239      C2618   1.402       .  A
C2239      C2244   1.392       .  A
C2239      H2246   1.084       .  S
C2240      C2617   1.402   1_546  A
C2240      C2241   1.406       .  A
C2241      C2242   1.393       .  A
C2241      F2248   1.358       .  S
C2242      C2243   1.403   1_556  A
C2242      H2247   1.084       .  S
C2243      C2622   1.406   1_545  A
C2244      C2621   1.406       .  A
C2244      F2245   1.358       .  S
C2249      C2250   1.404       .  A
C2249      C2254   1.394       .  A
C2249      H2256   1.083       .  S
C2250      C2251   1.406       .  A
C2251      C2252   1.395       .  A
C2251      F2258   1.358       .  S
C2252      C2253   1.404       .  A
C2252      H2257   1.083       .  S
C2253      C2254   1.405       .  A
C2254      F2255   1.358       .  S
C2259      C2260   1.404       .  A
C2259      C2264   1.394       .  A
C2259      H2266   1.083       .  S
C2260      C2261   1.404       .  A
C2261      C2262   1.394       .  A
C2261      F2268   1.357       .  S
C2262      C2263   1.403       .  A
C2262      H2267   1.083       .  S
C2263      C2264   1.405       .  A
C2264      F2265   1.358       .  S
C2269      C2270   1.395       .  A
C2269      C2274   1.392       .  A
C2269      C2638   1.473       .  S
C2270      C2271   1.405       .  A
C2270      H2275   1.083       .  S
C2271      C2332   1.489       .  S
C2272      C2273   1.417       .  A
C2272      H2276   1.082   1_455  S
C2273      C2431   1.486   1_455  S
C2274      H2277   1.083       .  S
C2278      C2641   1.472       .  S
C2279      C2280   1.403       .  A
C2280      C2281   1.417       .  A
C2280      C2318   1.487       .  S
C2281      C2282   1.418       .  A
C2281      H2285   1.082       .  S
C2282      C2283   1.405       .  A
C2282      C2398   1.486       .  S
C2283      H2286   1.083       .  S
C2287      C2628   1.475       .  S
C2288      C2289   1.405       .  A
C2289      C2290   1.419       .  A
C2289      C2331   1.489       .  S
C2290      C2291   1.418       .  A
C2290      H2294   1.082       .  S
C2291      C2292   1.404       .  A
C2291      C2527   1.488       .  S
C2292      H2295   1.083       .  S
C2296      C2297   1.394       .  A
C2296      C2301   1.393       .  A
C2296      C2631   1.475       .  S
C2297      H2302   1.083       .  S
C2298      C2299   1.419   1_545  A
C2298      C2495   1.490   1_545  S
C2299      H2303   1.082       .  S
C2300      C2301   1.404       .  A
C2300      C2317   1.488       .  S
C2301      H2304   1.083       .  S
O2305     Cu2313   2.020       .  S
O2305      C2315   1.277       .  A
O2306     Cu2313   2.009       .  S
O2306      C2316   1.281       .  A
O2307     Cu2313   2.009       .  S
O2307      C2317   1.281       .  A
O2308     Cu2313   2.020       .  S
O2308      C2318   1.277       .  A
O2309      C2318   1.281       .  A
O2310     Cu2314   2.024       .  S
O2311     Cu2314   2.022       .  S
O2312      C2315   1.281       .  A
C2315      C2412   1.487       .  S
C2316      C2501   1.487       .  S
O2319     Cu2327   2.009       .  S
O2319      C2329   1.281       .  A
O2320     Cu2327   2.022       .  S
O2320      C2330   1.277       .  A
O2321     Cu2327   2.024       .  S
O2321      C2331   1.277       .  A
O2322     Cu2327   2.012       .  S
O2322      C2332   1.281       .  A
O2323     Cu2328   2.024       .  S
O2324      C2331   1.281       .  A
O2325      C2330   1.281       .  A
O2326      C2329   1.277       .  A
C2329      C2373   1.487       .  S
C2330      C2469   1.488       .  S
C2333      C2334   1.392   1_556  A
C2333      C2716   1.394       .  A
C2333      C2996   1.472       .  S
C2334      C2335   1.402       .  A
C2334      H2339   1.083       .  S
C2335      C2336   1.415   1_554  A
C2335      C2446   1.482       .  S
C2336      C2715   1.415       .  A
C2336      H2340   1.083       .  S
C2337      C2714   1.415       .  A
C2337      C2338   1.403       .  A
C2338      C2711   1.394       .  A
C2342      C2343   1.392       .  A
C2342      C2725   1.393       .  A
C2342      C2621   1.472       .  S
C2343      C2344   1.402       .  A
C2344      C2345   1.415       .  A
C2345      C2724   1.416       .  A
C2345      H2349   1.083       .  S
C2346      C2723   1.416       .  A
C2346      C2347   1.404       .  A
C2346      C2400   1.484       .  S
C2347      C2720   1.393       .  A
C2347      H2350   1.084       .  S
C2351      C2730   1.393   1_554  A
C2351      C2356   1.394       .  A
C2351      C2611   1.471       .  S
C2352      C2729   1.393       .  A
C2352      C2353   1.404       .  A
C2352      H2357   1.084       .  S
C2353      C2732   1.416       .  A
C2353      C2525   1.485       .  S
C2354      C2731   1.416       .  A
C2354      C2355   1.416   1_556  A
C2354      H2358   1.083       .  S
C2355      C2356   1.403       .  A
C2360      C2739   1.393       .  A
C2360      C2365   1.393       .  A
C2360      C2986   1.471       .  S
C2361      C2738   1.393       .  A
C2361      C2362   1.403       .  A
C2362      C2741   1.416   1_554  A
C2363      C2740   1.416       .  A
C2363      C2364   1.416       .  A
C2363      H2367   1.083       .  S
C2364      C2365   1.403       .  A
C2364      C2539   1.485       .  S
C2365      H2368   1.083       .  S
C2369      C2370   1.393       .  A
C2369      C2374   1.394       .  A
C2369      C2598   1.474       .  S
C2370      H2375   1.083       .  S
C2371      C2372   1.417       .  A
C2371      C2445   1.484   1_455  S
C2372      H2376   1.083   1_455  S
C2373      C2374   1.404       .  A
C2374      H2377   1.084       .  S
C2378      C2379   1.393       .  A
C2378      C2383   1.394       .  A
C2378      C2601   1.473       .  S
C2379      C2380   1.403       .  A
C2379      H2384   1.084       .  S
C2380      C2381   1.416       .  A
C2380      C2399   1.484       .  S
C2381      C2382   1.416       .  A
C2381      H2385   1.083       .  S
C2382      C2383   1.404       .  A
C2382      C2553   1.486       .  S
C2383      H2386   1.083       .  S
O2387     Cu2395   2.018       .  S
O2387      C2397   1.276       .  A
O2388     Cu2395   2.005       .  S
O2388      C2398   1.281       .  A
O2389     Cu2395   2.003       .  S
O2389      C2399   1.281       .  A
O2390     Cu2395   2.016       .  S
O2390      C2400   1.277       .  A
O2391     Cu2396   2.005       .  S
O2391      C2400   1.281       .  A
O2392     Cu2396   2.018       .  S
O2392      C2399   1.277       .  A
O2393     Cu2396   2.021       .  S
O2393      C2398   1.277       .  A
O2394     Cu2396   2.008       .  S
O2394      C2397   1.281       .  A
Cu2395    Cu2396   2.368       .  S
C2397      C2449   1.486       .  S
C2401      C2402   1.393       .  A
C2401      C2406   1.394       .  A
C2401      C2588   1.473       .  S
C2402      C2403   1.403       .  A
C2402      H2407   1.083       .  S
C2403      C2404   1.416       .  A
C2403      C2556   1.486       .  S
C2404      C2405   1.417       .  A
C2404      H2408   1.083       .  S
C2405      C2406   1.404       .  A
C2405      C2430   1.486       .  S
C2406      H2409   1.084       .  S
C2410      C2411   1.395       .  A
C2410      C2591   1.474       .  S
C2411      H2416   1.084       .  S
C2412      C2413   1.417       .  A
C2413      C2414   1.416       .  A
C2413      H2417   1.083       .  S
C2414      C2415   1.403       .  A
C2414      C2444   1.486       .  S
C2415      H2418   1.083       .  S
O2419     Cu2427   2.018       .  S
O2419      C2429   1.277       .  A
O2420     Cu2427   2.007       .  S
O2420      C2430   1.281       .  A
O2421     Cu2427   2.006       .  S
O2421      C2431   1.281       .  A
O2422     Cu2427   2.017       .  S
O2422      C2432   1.276       .  A
O2423     Cu2428   2.007       .  S
O2423      C2432   1.281       .  A
O2424     Cu2428   2.019       .  S
O2424      C2431   1.277       .  A
O2425     Cu2428   2.020       .  S
O2425      C2430   1.277       .  A
O2426     Cu2428   2.008       .  S
O2426      C2429   1.281       .  A
Cu2427    Cu2428   2.368       .  S
C2432      C2458   1.485       .  S
O2433     Cu2441   2.007       .  S
O2433      C2443   1.281       .  A
O2434     Cu2441   2.019       .  S
O2434      C2444   1.277       .  A
O2435     Cu2441   2.015       .  S
O2435      C2445   1.276       .  A
O2436     Cu2441   2.001       .  S
O2436      C2446   1.280       .  A
O2437     Cu2442   2.015       .  S
O2437      C2446   1.276       .  A
O2438     Cu2442   2.005       .  S
O2438      C2445   1.281       .  A
O2439     Cu2442   2.008       .  S
O2439      C2444   1.281       .  A
O2440     Cu2442   2.019       .  S
O2440      C2443   1.277       .  A
Cu2441    Cu2442   2.369       .  S
C2447      C2826   1.392       .  A
C2447      C2452   1.393       .  A
C2447      C2578   1.472       .  S
C2448      C2825   1.392   1_554  A
C2448      C2449   1.403       .  A
C2448      H2453   1.083       .  S
C2449      C2828   1.418       .  A
C2450      C2827   1.418       .  A
C2450      C2451   1.418       .  A
C2450      H2454   1.082       .  S
C2451      C2452   1.403       .  A
C2451      C2528   1.486       .  S
C2452      H2455   1.083       .  S
C2456      C2835   1.392       .  A
C2456      C2461   1.394       .  A
C2456      C2581   1.472       .  S
C2457      C2834   1.392       .  A
C2457      C2458   1.403       .  A
C2457      H2462   1.083       .  S
C2458      C2837   1.417       .  A
C2459      C2836   1.417       .  A
C2459      C2460   1.418       .  A
C2459      H2463   1.082       .  S
C2460      C2461   1.404       .  A
C2460      C2496   1.487       .  S
C2461      H2464   1.083       .  S
C2465      C2470   1.394       .  A
C2465      C2568   1.473       .  S
C2466      C2467   1.404       .  A
C2466      H2471   1.083       .  S
C2467      C2468   1.417       .  A
C2467      C2541   1.487       .  S
C2468      C2469   1.418       .  A
C2468      H2472   1.083       .  S
C2470      H2473   1.084       .  S
C2474      C2475   1.394       .  A
C2474      C2479   1.394       .  A
C2474      C2571   1.474       .  S
C2475      C2476   1.405       .  A
C2475      H2480   1.084       .  S
C2476      C2477   1.417       .  A
C2476      C2494   1.486       .  S
C2477      C2478   1.416       .  A
C2477      H2481   1.083       .  S
C2478      C2479   1.404       .  A
C2478      C2554   1.486       .  S
C2479      H2482   1.083       .  S
O2483     Cu2491   2.014       .  S
O2483      C2493   1.276       .  A
O2484     Cu2491   2.005       .  S
O2484      C2494   1.280       .  A
O2485     Cu2491   2.012       .  S
O2485      C2495   1.282       .  A
O2486     Cu2491   2.021       .  S
O2486      C2496   1.277       .  A
O2487     Cu2492   2.011       .  S
O2487      C2496   1.281       .  A
O2488     Cu2492   2.025       .  S
O2488      C2495   1.277       .  A
O2489     Cu2492   2.021       .  S
O2489      C2494   1.277       .  A
O2490     Cu2492   2.007       .  S
O2490      C2493   1.281       .  A
Cu2491    Cu2492   2.368       .  S
C2497      C2498   1.395       .  A
C2497      C2502   1.395       .  A
C2497      C2558   1.477       .  S
C2498      H2503   1.083       .  S
C2499      C2500   1.417       .  A
C2499      C2540   1.488   1_545  S
C2500      H2504   1.083   1_545  S
C2501      C2502   1.404       .  A
C2502      H2505   1.084       .  S
C2506      C2507   1.395       .  A
C2506      C2511   1.394       .  A
C2506      C2561   1.477       .  S
C2507      C2508   1.405       .  A
C2507      H2512   1.084       .  S
C2508      C2509   1.417       .  A
C2508      C2526   1.486       .  S
C2509      C2510   1.416       .  A
C2509      H2513   1.083       .  S
C2510      C2511   1.403       .  A
C2510      C2555   1.486       .  S
C2511      H2514   1.083       .  S
O2515     Cu2523   2.007       .  S
O2515      C2525   1.281       .  A
O2516     Cu2523   2.020       .  S
O2516      C2526   1.277       .  A
O2517     Cu2523   2.022       .  S
O2517      C2527   1.277       .  A
O2518     Cu2523   2.009       .  S
O2518      C2528   1.281       .  A
O2519     Cu2524   2.019       .  S
O2519      C2528   1.277       .  A
O2520     Cu2524   2.009       .  S
O2520      C2527   1.281       .  A
O2521     Cu2524   2.008       .  S
O2521      C2526   1.281       .  A
O2522     Cu2524   2.018       .  S
O2522      C2525   1.277       .  A
Cu2523    Cu2524   2.368       .  S
O2529     Cu2537   2.019       .  S
O2529      C2539   1.277       .  A
O2530     Cu2537   2.009       .  S
O2530      C2540   1.281       .  A
O2531     Cu2537   2.007       .  S
O2531      C2541   1.281       .  A
O2532     Cu2537   2.015       .  S
O2532      C2542   1.276       .  A
O2533     Cu2538   2.003       .  S
O2533      C2542   1.281       .  A
O2534     Cu2538   2.021       .  S
O2534      C2541   1.277       .  A
O2535     Cu2538   2.022       .  S
O2535      C2540   1.277       .  A
O2536     Cu2538   2.005       .  S
O2536      C2539   1.281       .  A
Cu2537    Cu2538   2.368       .  S
O2543     Cu2551   2.018       .  S
O2543      C2553   1.277       .  A
O2544     Cu2551   2.008       .  S
O2544      C2554   1.281       .  A
O2545     Cu2551   2.007       .  S
O2545      C2555   1.281       .  A
O2546     Cu2551   2.019       .  S
O2546      C2556   1.277       .  A
O2547     Cu2552   2.007       .  S
O2547      C2556   1.281       .  A
O2548     Cu2552   2.019       .  S
O2548      C2555   1.277       .  A
O2549     Cu2552   2.021       .  S
O2549      C2554   1.277       .  A
O2550     Cu2552   2.008       .  S
O2550      C2553   1.281       .  A
Cu2551    Cu2552   2.368       .  S
C2557      C2558   1.404       .  A
C2557      C2562   1.395       .  A
C2557      H2564   1.081       .  S
C2558      C2559   1.406       .  A
C2559      C2560   1.394       .  A
C2559      F2566   1.358       .  S
C2560      C2561   1.404       .  A
C2560      H2565   1.081       .  S
C2561      C2562   1.406       .  A
C2562      F2563   1.358       .  S
C2567      C2568   1.402       .  A
C2567      C2572   1.395       .  A
C2567      H2574   1.085       .  S
C2568      C2569   1.406       .  A
C2569      C2570   1.395       .  A
C2569      F2576   1.358       .  S
C2570      C2571   1.403       .  A
C2570      H2575   1.085       .  S
C2571      C2572   1.406       .  A
C2572      F2573   1.358       .  S
C2577      C2956   1.403   1_554  A
C2577      C2582   1.392       .  A
C2577      H2584   1.083       .  S
C2578      C2955   1.403       .  A
C2578      C2579   1.406       .  A
C2579      C2580   1.393       .  A
C2579      F2586   1.358       .  S
C2580      C2581   1.404       .  A
C2580      H2585   1.083       .  S
C2581      C2960   1.405       .  A
C2582      C2959   1.405   1_554  A
C2582      F2583   1.357       .  S
C2587      C2588   1.402       .  A
C2587      C2592   1.394       .  A
C2587      H2594   1.083       .  S
C2588      C2589   1.406       .  A
C2589      C2590   1.394       .  A
C2589      F2596   1.358       .  S
C2590      C2591   1.403       .  A
C2590      H2595   1.084       .  S
C2591      C2592   1.406       .  A
C2592      F2593   1.358       .  S
C2597      C2598   1.404       .  A
C2597      C2602   1.394       .  A
C2597      H2604   1.081       .  S
C2598      C2599   1.405       .  A
C2599      C2600   1.394       .  A
C2599      F2606   1.358       .  S
C2600      C2601   1.403       .  A
C2600      H2605   1.081       .  S
C2601      C2602   1.406       .  A
C2602      F2603   1.358       .  S
C2607      C2986   1.403       .  A
C2607      C2612   1.394       .  A
C2607      H2614   1.081       .  S
C2608      C2985   1.403       .  A
C2608      C2738   1.471       .  S
C2609      F2616   1.358   1_455  S
C2610      C2611   1.403   1_556  A
C2611      C2990   1.405       .  A
C2612      C2989   1.405       .  A
C2612      F2613   1.358       .  S
C2617      C2622   1.392       .  A
C2617      H2624   1.084       .  S
C2618      C2619   1.406       .  A
C2618      C2711   1.472       .  S
C2619      C2620   1.393       .  A
C2619      F2626   1.358       .  S
C2620      C2621   1.403       .  A
C2620      H2625   1.084       .  S
C2622      F2623   1.358       .  S
C2627      C2628   1.404       .  A
C2627      C2632   1.394       .  A
C2627      H2634   1.083       .  S
C2628      C2629   1.406       .  A
C2629      C2630   1.395       .  A
C2629      F2636   1.358       .  S
C2630      C2631   1.404       .  A
C2630      H2635   1.083       .  S
C2631      C2632   1.405       .  A
C2632      F2633   1.358       .  S
C2637      C2638   1.404       .  A
C2637      C2642   1.394       .  A
C2637      H2644   1.083       .  S
C2638      C2639   1.404       .  A
C2639      C2640   1.394       .  A
C2639      F2646   1.357       .  S
C2640      C2641   1.403       .  A
C2640      H2645   1.083       .  S
C2641      C2642   1.405       .  A
C2642      F2643   1.358       .  S
C2647      C2648   1.395       .  A
C2647      C2652   1.392       .  A
C2647      C3016   1.473       .  S
C2648      C2649   1.405       .  A
C2648      H2653   1.083       .  S
C2649      C2710   1.489       .  S
C2650      C2651   1.417       .  A
C2650      H2654   1.082   1_455  S
C2651      C2809   1.486   1_455  S
C2652      H2655   1.083       .  S
C2656      C3019   1.472       .  S
C2657      C2658   1.403       .  A
C2658      C2659   1.417       .  A
C2658      C2696   1.487       .  S
C2659      C2660   1.418       .  A
C2659      H2663   1.082       .  S
C2660      C2661   1.405       .  A
C2660      C2776   1.486       .  S
C2661      H2664   1.083       .  S
C2665      C3006   1.475       .  S
C2666      C2667   1.405       .  A
C2667      C2668   1.419       .  A
C2667      C2709   1.489       .  S
C2668      C2669   1.418       .  A
C2668      H2672   1.082       .  S
C2669      C2670   1.404       .  A
C2669      C2905   1.488       .  S
C2670      H2673   1.083       .  S
C2674      C2675   1.394       .  A
C2674      C2679   1.393       .  A
C2674      C3009   1.475       .  S
C2675      H2680   1.083       .  S
C2676      C2677   1.419   1_545  A
C2676      C2873   1.490   1_545  S
C2677      H2681   1.082       .  S
C2678      C2679   1.404       .  A
C2678      C2695   1.488       .  S
C2679      H2682   1.083       .  S
O2683     Cu2691   2.020       .  S
O2683      C2693   1.277       .  A
O2684     Cu2691   2.009       .  S
O2684      C2694   1.281       .  A
O2685     Cu2691   2.009       .  S
O2685      C2695   1.281       .  A
O2686     Cu2691   2.020       .  S
O2686      C2696   1.277       .  A
O2687      C2696   1.281       .  A
O2688     Cu2692   2.024       .  S
O2689     Cu2692   2.022       .  S
O2690      C2693   1.281       .  A
C2693      C2790   1.487       .  S
C2694      C2879   1.487       .  S
O2697     Cu2705   2.009       .  S
O2697      C2707   1.281       .  A
O2698     Cu2705   2.022       .  S
O2698      C2708   1.277       .  A
O2699     Cu2705   2.024       .  S
O2699      C2709   1.277       .  A
O2700     Cu2705   2.012       .  S
O2700      C2710   1.281       .  A
O2701     Cu2706   2.024       .  S
O2702      C2709   1.281       .  A
O2703      C2708   1.281       .  A
O2704      C2707   1.277       .  A
C2707      C2751   1.487       .  S
C2708      C2847   1.488       .  S
C2711      C2712   1.392       .  A
C2712      C2713   1.402       .  A
C2712      H2717   1.083       .  S
C2713      C2714   1.415       .  A
C2713      C2824   1.482       .  S
C2714      H2718   1.083       .  S
C2715      C2716   1.403       .  A
C2720      C2721   1.392   1_554  A
C2720      C2999   1.472       .  S
C2721      C2722   1.402       .  A
C2722      C2723   1.415   1_556  A
C2723      H2727   1.083       .  S
C2724      C2725   1.404       .  A
C2724      C2778   1.484       .  S
C2725      H2728   1.084       .  S
C2729      C2734   1.394       .  A
C2729      C2989   1.471       .  S
C2730      C2731   1.404       .  A
C2730      H2735   1.084       .  S
C2731      C2903   1.485       .  S
C2732      C2733   1.416       .  A
C2732      H2736   1.083       .  S
C2733      C2734   1.403       .  A
C2738      C2743   1.393   1_554  A
C2739      C2740   1.403       .  A
C2741      C2742   1.416       .  A
C2741      H2745   1.083       .  S
C2742      C2743   1.403       .  A
C2742      C2917   1.485       .  S
C2743      H2746   1.083       .  S
C2747      C2748   1.393       .  A
C2747      C2752   1.394       .  A
C2747      C2976   1.474       .  S
C2748      H2753   1.083       .  S
C2749      C2750   1.417       .  A
C2749      C2823   1.484   1_455  S
C2750      H2754   1.083   1_455  S
C2751      C2752   1.404       .  A
C2752      H2755   1.084       .  S
C2756      C2757   1.393       .  A
C2756      C2761   1.394       .  A
C2756      C2979   1.473       .  S
C2757      C2758   1.403       .  A
C2757      H2762   1.084       .  S
C2758      C2759   1.416       .  A
C2758      C2777   1.484       .  S
C2759      C2760   1.416       .  A
C2759      H2763   1.083       .  S
C2760      C2761   1.404       .  A
C2760      C2931   1.486       .  S
C2761      H2764   1.084       .  S
O2765     Cu2773   2.018       .  S
O2765      C2775   1.276       .  A
O2766     Cu2773   2.005       .  S
O2766      C2776   1.281       .  A
O2767     Cu2773   2.003       .  S
O2767      C2777   1.281       .  A
O2768     Cu2773   2.016       .  S
O2768      C2778   1.277       .  A
O2769     Cu2774   2.005       .  S
O2769      C2778   1.281       .  A
O2770     Cu2774   2.018       .  S
O2770      C2777   1.277       .  A
O2771     Cu2774   2.021       .  S
O2771      C2776   1.277       .  A
O2772     Cu2774   2.008       .  S
O2772      C2775   1.281       .  A
Cu2773    Cu2774   2.368       .  S
C2775      C2827   1.486       .  S
C2779      C2780   1.393       .  A
C2779      C2784   1.394       .  A
C2779      C2966   1.473       .  S
C2780      C2781   1.403       .  A
C2780      H2785   1.083       .  S
C2781      C2782   1.416       .  A
C2781      C2934   1.486       .  S
C2782      C2783   1.417       .  A
C2782      H2786   1.083       .  S
C2783      C2784   1.404       .  A
C2783      C2808   1.486       .  S
C2784      H2787   1.084       .  S
C2788      C2789   1.395       .  A
C2788      C2969   1.474       .  S
C2789      H2794   1.084       .  S
C2790      C2791   1.417       .  A
C2791      C2792   1.416       .  A
C2791      H2795   1.083       .  S
C2792      C2793   1.403       .  A
C2792      C2822   1.486       .  S
C2793      H2796   1.083       .  S
O2797     Cu2805   2.018       .  S
O2797      C2807   1.277       .  A
O2798     Cu2805   2.007       .  S
O2798      C2808   1.281       .  A
O2799     Cu2805   2.006       .  S
O2799      C2809   1.281       .  A
O2800     Cu2805   2.017       .  S
O2800      C2810   1.276       .  A
O2801     Cu2806   2.007       .  S
O2801      C2810   1.281       .  A
O2802     Cu2806   2.019       .  S
O2802      C2809   1.277       .  A
O2803     Cu2806   2.020       .  S
O2803      C2808   1.277       .  A
O2804     Cu2806   2.008       .  S
O2804      C2807   1.281       .  A
Cu2805    Cu2806   2.368       .  S
C2810      C2836   1.485       .  S
O2811     Cu2819   2.007       .  S
O2811      C2821   1.281       .  A
O2812     Cu2819   2.019       .  S
O2812      C2822   1.277       .  A
O2813     Cu2819   2.015       .  S
O2813      C2823   1.276       .  A
O2814     Cu2819   2.001       .  S
O2814      C2824   1.280       .  A
O2815     Cu2820   2.015       .  S
O2815      C2824   1.276       .  A
O2816     Cu2820   2.005       .  S
O2816      C2823   1.281       .  A
O2817     Cu2820   2.008       .  S
O2817      C2822   1.281       .  A
O2818     Cu2820   2.019       .  S
O2818      C2821   1.277       .  A
Cu2819    Cu2820   2.369       .  S
C2825      C2830   1.393       .  A
C2825      C2956   1.472       .  S
C2826      C2827   1.403       .  A
C2826      H2831   1.083       .  S
C2828      C2829   1.418   1_554  A
C2828      H2832   1.082       .  S
C2829      C2830   1.403       .  A
C2829      C2906   1.486       .  S
C2830      H2833   1.083       .  S
C2834      C2839   1.394   1_554  A
C2834      C2959   1.472   1_554  S
C2835      C2836   1.403       .  A
C2835      H2840   1.083       .  S
C2837      C2838   1.418   1_554  A
C2837      H2841   1.082       .  S
C2838      C2839   1.404       .  A
C2838      C2874   1.487       .  S
C2839      H2842   1.083       .  S
C2843      C2848   1.394       .  A
C2843      C2946   1.473       .  S
C2844      C2845   1.404       .  A
C2844      H2849   1.083       .  S
C2845      C2846   1.417       .  A
C2845      C2919   1.487       .  S
C2846      C2847   1.418       .  A
C2846      H2850   1.083       .  S
C2848      H2851   1.084       .  S
C2852      C2853   1.394       .  A
C2852      C2857   1.394       .  A
C2852      C2949   1.474       .  S
C2853      C2854   1.405       .  A
C2853      H2858   1.084       .  S
C2854      C2855   1.417       .  A
C2854      C2872   1.486       .  S
C2855      C2856   1.416       .  A
C2855      H2859   1.083       .  S
C2856      C2857   1.404       .  A
C2856      C2932   1.486       .  S
C2857      H2860   1.083       .  S
O2861     Cu2869   2.014       .  S
O2861      C2871   1.276       .  A
O2862     Cu2869   2.005       .  S
O2862      C2872   1.280       .  A
O2863     Cu2869   2.012       .  S
O2863      C2873   1.282       .  A
O2864     Cu2869   2.021       .  S
O2864      C2874   1.277       .  A
O2865     Cu2870   2.011       .  S
O2865      C2874   1.281       .  A
O2866     Cu2870   2.025       .  S
O2866      C2873   1.277       .  A
O2867     Cu2870   2.021       .  S
O2867      C2872   1.277       .  A
O2868     Cu2870   2.007       .  S
O2868      C2871   1.281       .  A
Cu2869    Cu2870   2.368       .  S
C2875      C2876   1.395       .  A
C2875      C2880   1.395       .  A
C2875      C2936   1.477       .  S
C2876      H2881   1.083       .  S
C2877      C2878   1.417       .  A
C2877      C2918   1.488   1_545  S
C2878      H2882   1.083   1_545  S
C2879      C2880   1.404       .  A
C2880      H2883   1.084       .  S
C2884      C2885   1.395       .  A
C2884      C2889   1.394       .  A
C2884      C2939   1.477       .  S
C2885      C2886   1.405       .  A
C2885      H2890   1.084       .  S
C2886      C2887   1.417       .  A
C2886      C2904   1.486       .  S
C2887      C2888   1.416       .  A
C2887      H2891   1.083       .  S
C2888      C2889   1.403       .  A
C2888      C2933   1.486       .  S
C2889      H2892   1.084       .  S
O2893     Cu2901   2.007       .  S
O2893      C2903   1.281       .  A
O2894     Cu2901   2.020       .  S
O2894      C2904   1.277       .  A
O2895     Cu2901   2.022       .  S
O2895      C2905   1.277       .  A
O2896     Cu2901   2.009       .  S
O2896      C2906   1.281       .  A
O2897     Cu2902   2.019       .  S
O2897      C2906   1.277       .  A
O2898     Cu2902   2.009       .  S
O2898      C2905   1.281       .  A
O2899     Cu2902   2.008       .  S
O2899      C2904   1.281       .  A
O2900     Cu2902   2.018       .  S
O2900      C2903   1.277       .  A
Cu2901    Cu2902   2.368       .  S
O2907     Cu2915   2.019       .  S
O2907      C2917   1.277       .  A
O2908     Cu2915   2.009       .  S
O2908      C2918   1.281       .  A
O2909     Cu2915   2.007       .  S
O2909      C2919   1.281       .  A
O2910     Cu2915   2.015       .  S
O2910      C2920   1.276       .  A
O2911     Cu2916   2.003       .  S
O2911      C2920   1.281       .  A
O2912     Cu2916   2.021       .  S
O2912      C2919   1.277       .  A
O2913     Cu2916   2.022       .  S
O2913      C2918   1.277       .  A
O2914     Cu2916   2.005       .  S
O2914      C2917   1.281       .  A
Cu2915    Cu2916   2.368       .  S
O2921     Cu2929   2.018       .  S
O2921      C2931   1.277       .  A
O2922     Cu2929   2.008       .  S
O2922      C2932   1.281       .  A
O2923     Cu2929   2.007       .  S
O2923      C2933   1.281       .  A
O2924     Cu2929   2.019       .  S
O2924      C2934   1.277       .  A
O2925     Cu2930   2.007       .  S
O2925      C2934   1.281       .  A
O2926     Cu2930   2.019       .  S
O2926      C2933   1.277       .  A
O2927     Cu2930   2.021       .  S
O2927      C2932   1.277       .  A
O2928     Cu2930   2.008       .  S
O2928      C2931   1.281       .  A
Cu2929    Cu2930   2.368       .  S
C2935      C2936   1.404       .  A
C2935      C2940   1.395       .  A
C2935      H2942   1.081       .  S
C2936      C2937   1.406       .  A
C2937      C2938   1.394       .  A
C2937      F2944   1.358       .  S
C2938      C2939   1.404       .  A
C2938      H2943   1.081       .  S
C2939      C2940   1.406       .  A
C2940      F2941   1.358       .  S
C2945      C2946   1.402       .  A
C2945      C2950   1.395       .  A
C2945      H2952   1.085       .  S
C2946      C2947   1.406       .  A
C2947      C2948   1.395       .  A
C2947      F2954   1.358       .  S
C2948      C2949   1.403       .  A
C2948      H2953   1.085       .  S
C2949      C2950   1.406       .  A
C2950      F2951   1.358       .  S
C2955      C2960   1.392       .  A
C2955      H2962   1.083       .  S
C2956      C2957   1.406       .  A
C2957      C2958   1.393       .  A
C2957      F2964   1.358       .  S
C2958      C2959   1.404       .  A
C2958      H2963   1.083       .  S
C2960      F2961   1.357       .  S
C2965      C2966   1.402       .  A
C2965      C2970   1.394       .  A
C2965      H2972   1.083       .  S
C2966      C2967   1.406       .  A
C2967      C2968   1.394       .  A
C2967      F2974   1.358       .  S
C2968      C2969   1.403       .  A
C2968      H2973   1.083       .  S
C2969      C2970   1.406       .  A
C2970      F2971   1.358       .  S
C2975      C2976   1.404       .  A
C2975      C2980   1.394       .  A
C2975      H2982   1.081       .  S
C2976      C2977   1.405       .  A
C2977      C2978   1.394       .  A
C2977      F2984   1.358       .  S
C2978      C2979   1.403       .  A
C2978      H2983   1.081       .  S
C2979      C2980   1.406       .  A
C2980      F2981   1.358       .  S
C2985      C2990   1.394       .  A
C2985      H2992   1.081       .  S
C2987      F2994   1.358   1_455  S
C2988      C2989   1.403       .  A
C2990      F2991   1.358       .  S
C2995      C3000   1.392       .  A
C2995      H3002   1.084       .  S
C2996      C2997   1.406       .  A
C2997      C2998   1.393       .  A
C2997      F3004   1.358       .  S
C2998      C2999   1.403   1_556  A
C2998      H3003   1.084       .  S
C3000      F3001   1.358       .  S
C3005      C3006   1.404       .  A
C3005      C3010   1.394       .  A
C3005      H3012   1.083       .  S
C3006      C3007   1.406       .  A
C3007      C3008   1.395       .  A
C3007      F3014   1.358       .  S
C3008      C3009   1.404       .  A
C3008      H3013   1.083       .  S
C3009      C3010   1.405       .  A
C3010      F3011   1.358       .  S
C3015      C3016   1.404       .  A
C3015      C3020   1.394       .  A
C3015      H3022   1.083       .  S
C3016      C3017   1.404       .  A
C3017      C3018   1.394       .  A
C3017      F3024   1.357       .  S
C3018      C3019   1.403       .  A
C3018      H3023   1.083       .  S
C3019      C3020   1.405       .  A
C3020      F3021   1.358       .  S
