geometry optimzed in LAMMPS
_audit_creation_date              2020-11-30 
_audit_creation_method            'lammps2cif' 
_symmetry_space_group_name_H-M    'P1' 
_symmetry_Int_Tables_number       1 
_symmetry_cell_setting            triclinic 
loop_ 
_symmetry_equiv_pos_as_xyz 
  x,y,z 
_cell_length_a                    40.54773528193228 
_cell_length_b                    41.36128059846853 
_cell_length_c                    40.73386590047118 
_cell_angle_alpha                 89.9678752911876 
_cell_angle_beta                  90.07371359803685 
_cell_angle_gamma                 90.06031981290378 
loop_ 
_atom_site_label 
_atom_site_type_symbol 
_atom_site_fract_x 
_atom_site_fract_y 
_atom_site_fract_z 
_atom_site_charge 
C1          C  0.85252163  0.35762913  0.85254487    -0.02740
C2          C  0.35444035  0.85951853  0.85308777    -0.02740
C3          C  0.35160697  0.85650565  0.18054782    -0.02740
C4          C  0.68268370  0.85718750  0.85583680    -0.02740
C5          C  0.35470737  0.18342629  0.85674711    -0.02740
C6          C  0.85225552  0.68619643  0.85454774    -0.02740
C7          C  0.18243848  0.35219076  0.84855282    -0.02740
C8          C  0.85640146  0.35798595  0.18229515    -0.02740
C9          C  0.85410289  0.85154636  0.68450941    -0.02740
C10         C  0.18052367  0.86071418  0.35866090    -0.02740
C11         C  0.85687016  0.68348648  0.18530418    -0.02740
C12         C  0.19003130  0.68245488  0.85139283    -0.02740
C13         C  0.69030041  0.18628856  0.84722427    -0.02740
C14         C  0.68640088  0.85099373  0.18769159    -0.02740
C15         C  0.85354291  0.18066895  0.68377951    -0.02740
C16         C  0.18528787  0.85154366  0.68809038    -0.02740
O17         O  0.48584777  0.72571724  0.27368010    -0.72040
O18         O  0.55023257  0.77175473  0.22412211    -0.72250
O19         O  0.55211702  0.72666283  0.27206707    -0.72110
O20         O  0.48405894  0.77021824  0.22568034    -0.72120
O21         O  0.48429290  0.80898268  0.26150595    -0.72080
O22         O  0.55190671  0.76465499  0.30865650    -0.72100
O23         O  0.55050207  0.80982918  0.26064733    -0.72040
O24         O  0.48565330  0.76431642  0.30960436    -0.72230
V25         V  0.51809994  0.74937363  0.24955593     1.35240
V26         V  0.51816091  0.78617703  0.28444528     1.35170
C27         C  0.47437549  0.73739212  0.29998992     0.77200
C28         C  0.56133493  0.79876515  0.23385854     0.77260
C29         C  0.56364614  0.73808450  0.29847656     0.77130
C30         C  0.47220465  0.79666770  0.23572199     0.77090
O31         O  0.55165700  0.73089734  0.76328050    -0.72040
O32         O  0.48402225  0.77730746  0.80926597    -0.72250
O33         O  0.48501341  0.73021375  0.76256974    -0.72110
O34         O  0.55015775  0.77747088  0.81029479    -0.72120
O35         O  0.55128882  0.81339344  0.77158542    -0.72080
O36         O  0.48413857  0.76772351  0.72546894    -0.72100
O37         O  0.48575651  0.81441778  0.77173524    -0.72040
O38         O  0.55034233  0.76740056  0.72498335    -0.72230
V39         V  0.51765053  0.75455406  0.78560489     1.35240
V40         V  0.51781269  0.78989461  0.74916011     1.35170
C41         C  0.56287010  0.74184706  0.73641821     0.77200
C42         C  0.47437696  0.80463386  0.79882249     0.77260
C43         C  0.47324685  0.74090723  0.73586837     0.77130
C44         C  0.56172937  0.80370545  0.79922427     0.77090
O45         O  0.81049617  0.25631453  0.48951081    -0.72040
O46         O  0.76582791  0.30456404  0.55570164    -0.72250
O47         O  0.80989924  0.25462216  0.55548976    -0.72110
O48         O  0.76557700  0.30526894  0.48969999    -0.72120
O49         O  0.72549917  0.27051425  0.49009451    -0.72080
O50         O  0.76963848  0.22016672  0.55350408    -0.72100
O51         O  0.72617281  0.26940523  0.55535764    -0.72040
O52         O  0.76987374  0.22207756  0.48805187    -0.72230
V53         V  0.78727546  0.27954431  0.52265122     1.35240
V54         V  0.74869790  0.24622366  0.52184237     1.35170
C55         C  0.79752168  0.23137012  0.47706238     0.77200
C56         C  0.73797493  0.29566606  0.56637024     0.77260
C57         C  0.79705466  0.22836103  0.56542738     0.77130
C58         C  0.73744743  0.29651093  0.47908823     0.77090
C59         C  0.68378012  0.18529032  0.18315842    -0.02740
C60         C  0.69187292  0.35239415  0.35572271    -0.02740
O61         O  0.77115462  0.48723443  0.22578055    -0.72040
O62         O  0.72605636  0.54838863  0.27887756    -0.72250
O63         O  0.76877611  0.55228777  0.22802701    -0.72110
O64         O  0.72874343  0.48385710  0.27673775    -0.72120
O65         O  0.76918369  0.48590987  0.31158744    -0.72080
O66         O  0.81131875  0.55101705  0.26034259    -0.72100
O67         O  0.76867357  0.55059875  0.31117958    -0.72040
O68         O  0.81176900  0.48603597  0.26049026    -0.72230
V69         V  0.74956020  0.51793827  0.25290586     1.35240
V70         V  0.78941669  0.51835084  0.28527968     1.35170
C71         C  0.79874649  0.47564801  0.23430120     0.77200
C72         C  0.73988770  0.56012352  0.30396791     0.77260
C73         C  0.79694052  0.56331664  0.23575130     0.77130
C74         C  0.74167653  0.47393347  0.30317805     0.77090
C75         C  0.68205794  0.67836238  0.35895959    -0.02740
C76         C  0.76478840  0.76082892  0.27116588    -0.02740
O77         O  0.77062949  0.80986726  0.48506005    -0.72040
O78         O  0.72675668  0.76100184  0.55113490    -0.72250
O79         O  0.77318414  0.80817051  0.55115781    -0.72110
O80         O  0.72438167  0.76243792  0.48563306    -0.72120
O81         O  0.76245116  0.72577738  0.48512670    -0.72080
O82         O  0.81243107  0.77260571  0.54750570    -0.72100
O83         O  0.76607510  0.72558790  0.55003882    -0.72040
O84         O  0.80839956  0.77300455  0.48176183    -0.72230
V85         V  0.74956063  0.78481480  0.51815226     1.35240
V86         V  0.78665355  0.75005995  0.51607212     1.35170
C87         C  0.79680862  0.79968679  0.47175398     0.77200
C88         C  0.73862156  0.73468933  0.56165109     0.77260
C89         C  0.80093419  0.79775815  0.56075994     0.77130
C90         C  0.73439576  0.73520956  0.47558534     0.77090
C91         C  0.68637454  0.68609755  0.68494708    -0.02740
C92         C  0.76852209  0.77314806  0.77242646    -0.02740
O93         O  0.72003984  0.55259291  0.76740301    -0.72040
O94         O  0.76763625  0.48905571  0.81496241    -0.72250
O95         O  0.76598307  0.55393999  0.81474424    -0.72110
O96         O  0.72184259  0.48772266  0.76673826    -0.72120
O97         O  0.76029305  0.48889301  0.72970440    -0.72080
O98         O  0.80465763  0.55474905  0.77811712    -0.72100
O99         O  0.80648302  0.48948387  0.77854951    -0.72040
O100        O  0.75833466  0.55420438  0.73035757    -0.72230
V101        V  0.74465277  0.52078771  0.79016749     1.35240
V102        V  0.78172607  0.52178014  0.75483148     1.35170
C103        C  0.73106261  0.56481460  0.74121650     0.77200
C104        C  0.79514643  0.47829254  0.80535306     0.77260
C105        C  0.79275635  0.56596236  0.80446112     0.77130
C106        C  0.73360747  0.47688432  0.74013785     0.75650
C107        C  0.68064509  0.35456852  0.68380178    -0.02740
C108        C  0.77172815  0.27339755  0.76312176    -0.02740
O109        O  0.55004886  0.28398269  0.73008802    -0.72040
O110        O  0.48592655  0.23275073  0.77568403    -0.72250
O111        O  0.48448554  0.28197004  0.73134903    -0.72110
O112        O  0.55234600  0.23447064  0.77377764    -0.72120
O113        O  0.55185834  0.26780424  0.81495435    -0.72080
O114        O  0.48563763  0.31717583  0.77079089    -0.72100
O115        O  0.48572448  0.26827627  0.81486645    -0.72040
O116        O  0.55092420  0.31720482  0.77125208    -0.72230
V117        V  0.51819656  0.25880209  0.75358666     1.35240
V118        V  0.51847620  0.29185251  0.79221651     1.35170
C119        C  0.56103364  0.30973730  0.74297370     0.77200
C120        C  0.47481788  0.24208562  0.80319495     0.77260
C121        C  0.47462925  0.30854941  0.74298564     0.77130
C122        C  0.56382197  0.24290168  0.80139058     0.77090
C123        C  0.17825901  0.18225424  0.68049443    -0.02740
C124        C  0.35061860  0.34724215  0.68769942    -0.02740
O125        O  0.22734191  0.55144574  0.76591081    -0.72040
O126        O  0.27347920  0.48221945  0.72538029    -0.72250
O127        O  0.22346263  0.48677806  0.76828968    -0.72110
O128        O  0.27767257  0.54621692  0.72290800    -0.72120
O129        O  0.31261434  0.54622081  0.76342984    -0.72080
O130        O  0.25819898  0.48581028  0.80892644    -0.72100
O131        O  0.30834079  0.48150358  0.76598917    -0.72040
O132        O  0.26169685  0.55069058  0.80670280    -0.72230
V133        V  0.25117866  0.51673183  0.74647549     1.35240
V134        V  0.28460819  0.51617733  0.78548036     1.35170
C135        C  0.23609624  0.56258976  0.79350651     0.77200
C136        C  0.29851536  0.46995311  0.73894021     0.77260
C137        C  0.23210526  0.47523372  0.79571354     0.77130
C138        C  0.30426553  0.55636415  0.73533667     0.77090
C139        C  0.35353748  0.67989582  0.68323583    -0.02740
C140        C  0.27518890  0.76875624  0.76759418    -0.02740
O141        O  0.22640789  0.77359876  0.48787279    -0.72040
O142        O  0.27023045  0.72118975  0.55078314    -0.72250
O143        O  0.22780583  0.77118786  0.55376177    -0.72110
O144        O  0.26924515  0.72389132  0.48527985    -0.72120
O145        O  0.31100774  0.75664844  0.48689076    -0.72080
O146        O  0.26814211  0.80562006  0.55422064    -0.72100
O147        O  0.31110679  0.75490005  0.55282681    -0.72040
O148        O  0.26779631  0.80675238  0.48787545    -0.72230
V149        V  0.24925931  0.74818796  0.51948471     1.35240
V150        V  0.28873006  0.78042855  0.52041805     1.35170
C151        C  0.23966316  0.79895853  0.47664836     0.77200
C152        C  0.29797533  0.72878757  0.56264614     0.77260
C153        C  0.24060578  0.79656769  0.56570577     0.77130
C154        C  0.29748820  0.73175693  0.47472747     0.77090
C155        C  0.19215297  0.68658388  0.18734742    -0.02740
C156        C  0.34865017  0.68881748  0.34956599    -0.02740
C157        C  0.35772580  0.35579259  0.35722530    -0.02740
O158        O  0.26974835  0.55104818  0.22673514    -0.72040
O159        O  0.31549914  0.48318761  0.26895007    -0.72250
O160        O  0.26552234  0.48617024  0.22566642    -0.72110
O161        O  0.31903105  0.54826874  0.27100540    -0.72120
O162        O  0.28230570  0.55042141  0.30971170    -0.72080
O163        O  0.23161507  0.48562038  0.26676529    -0.72100
O164        O  0.28190274  0.48558664  0.31040191    -0.72040
O165        O  0.23255539  0.55097563  0.26506853    -0.72230
V166        V  0.29176843  0.51714421  0.24890613     1.35240
V167        V  0.25773364  0.51810593  0.28722528     1.35170
C168        C  0.24344830  0.56260545  0.23833401     0.77200
C169        C  0.30691383  0.47302448  0.29684201     0.77260
C170        C  0.23960812  0.47488614  0.23882450     0.77130
C171        C  0.30917126  0.56050951  0.29780825     0.77090
C172        C  0.26500778  0.78188853  0.27124766    -0.02740
O173        O  0.98660915  0.77465911  0.31202097    -0.72040
O174        O  0.05603824  0.72764487  0.26941856    -0.72250
O175        O  0.05270609  0.77779696  0.31230474    -0.72110
O176        O  0.98945580  0.72367657  0.26955939    -0.72120
O177        O  0.98877708  0.75626933  0.22787252    -0.72080
O178        O  0.04947537  0.81189640  0.27184168    -0.72100
O179        O  0.05439472  0.76220434  0.22955168    -0.72040
O180        O  0.98435504  0.80695040  0.26999953    -0.72230
V181        V  0.02110635  0.75153782  0.29010100     1.35240
V182        V  0.01924135  0.78362536  0.25067657     1.35170
C183        C  0.97385529  0.79899671  0.29797523     0.77200
C184        C  0.06728351  0.73729751  0.24200455     0.77260
C185        C  0.06191422  0.80398435  0.29920009     0.77130
C186        C  0.97887709  0.73019968  0.24101185     0.77090
O187        O  0.23096604  0.75809051  0.04949850    -0.72040
O188        O  0.27647832  0.80620804  0.98282393    -0.72250
O189        O  0.23287842  0.75642341  0.98350705    -0.72110
O190        O  0.27462467  0.80791102  0.04875857    -0.72120
O191        O  0.31596466  0.77479622  0.04963743    -0.72080
O192        O  0.27287472  0.72180008  0.98641005    -0.72100
O193        O  0.31608763  0.77094303  0.98389217    -0.72040
O194        O  0.27250718  0.72528691  0.05181652    -0.72230
V195        V  0.25448467  0.78154862  0.01616428     1.35240
V196        V  0.29352972  0.74890131  0.01797887     1.35170
C197        C  0.24435802  0.73341769  0.06227489     0.77200
C198        C  0.30389576  0.79637008  0.97172551     0.77260
C199        C  0.24567093  0.73017822  0.97388508     0.77130
C200        C  0.30275814  0.80052708  0.06000690     0.77090
C201        C  0.26461156  0.26131263  0.76957959    -0.02740
O202        O  0.22598423  0.98873085  0.76519759    -0.72040
O203        O  0.27368325  0.05600852  0.80902755    -0.72250
O204        O  0.22616974  0.05334225  0.76273883    -0.72110
O205        O  0.27276737  0.99150331  0.81218137    -0.72120
O206        O  0.31062606  0.98890666  0.77479393    -0.72080
O207        O  0.26300335  0.05234731  0.72437140    -0.72100
O208        O  0.31072203  0.05390026  0.77079153    -0.72040
O209        O  0.26351314  0.98726299  0.72720870    -0.72230
V210        V  0.25035143  0.02239493  0.78643969     1.35240
V211        V  0.28629673  0.02064933  0.74999479     1.35170
C212        C  0.23691603  0.97637012  0.73887467     0.77200
C213        C  0.30065170  0.06631545  0.79726047     0.77260
C214        C  0.23613117  0.06371954  0.73540582     0.77130
C215        C  0.29946991  0.97937463  0.80233442     0.77090
O216        O  0.98413138  0.26331518  0.72609399    -0.72040
O217        O  0.05119492  0.30890894  0.77136535    -0.72250
O218        O  0.04956558  0.26286727  0.72402573    -0.72110
O219        O  0.98575601  0.30955263  0.77262205    -0.72120
O220        O  0.98474627  0.27234468  0.81009229    -0.72080
O221        O  0.05130751  0.22629936  0.76209172    -0.72100
O222        O  0.05101099  0.27299589  0.81009620    -0.72040
O223        O  0.98543675  0.22560887  0.76307213    -0.72230
V224        V  0.01773947  0.28542708  0.74937246     1.35240
V225        V  0.01823719  0.24997283  0.78569212     1.35170
C226        C  0.97387688  0.23622328  0.73629886     0.77200
C227        C  0.06173496  0.29959850  0.79906352     0.77260
C228        C  0.06047069  0.23596474  0.73389652     0.77130
C229        C  0.97422065  0.29930195  0.79950871     0.77090
O230        O  0.27155860  0.31143607  0.48356582    -0.72040
O231        O  0.22462399  0.26580583  0.54965354    -0.72250
O232        O  0.27263960  0.31101519  0.54964966    -0.72110
O233        O  0.22371313  0.26608088  0.48398615    -0.72120
O234        O  0.26136335  0.22895766  0.48213473    -0.72080
O235        O  0.30893711  0.27265848  0.54985710    -0.72100
O236        O  0.26102641  0.22731466  0.54791607    -0.72040
O237        O  0.30957484  0.27466509  0.48361351    -0.72230
V238        V  0.24888414  0.28784948  0.51661702     1.35240
V239        V  0.28454302  0.25162851  0.51581309     1.35170
C240        C  0.29886389  0.30131761  0.47261757     0.77200
C241        C  0.23484238  0.23882239  0.56001614     0.77260
C242        C  0.29890499  0.29929414  0.56157153     0.77130
C243        C  0.23398145  0.23975042  0.47195049     0.77090
C244        C  0.76931688  0.27149306  0.26227202    -0.02740
O245        O  0.80972937  0.98555500  0.26911620    -0.72040
O246        O  0.76170716  0.05089087  0.22451847    -0.72250
O247        O  0.81175545  0.05073473  0.26839020    -0.72110
O248        O  0.75919292  0.98657724  0.22587793    -0.72120
O249        O  0.72405761  0.98839993  0.26607823    -0.72080
O250        O  0.77704591  0.05176773  0.30874858    -0.72100
O251        O  0.72672417  0.05303400  0.26484484    -0.72040
O252        O  0.77492307  0.98653857  0.30950187    -0.72230
V253        V  0.78492771  0.01844136  0.24782510     1.35240
V254        V  0.75134857  0.01992372  0.28653258     1.35170
C255        C  0.80073531  0.97464650  0.29672131     0.77200
C256        C  0.73616322  0.06310120  0.23698889     0.77260
C257        C  0.80318072  0.06262452  0.29576425     0.77130
C258        C  0.73262366  0.97672925  0.23875780     0.77090
O259        O  0.73030429  0.26457100  0.05234718    -0.72040
O260        O  0.77783267  0.31134399  0.98810834    -0.72250
O261        O  0.73039218  0.26560825  0.98622680    -0.72110
O262        O  0.77856355  0.31020322  0.05329961    -0.72120
O263        O  0.81531000  0.27214909  0.05289689    -0.72080
O264        O  0.76800511  0.22844062  0.98582548    -0.72100
O265        O  0.81573431  0.27425322  0.98721613    -0.72040
O266        O  0.76695539  0.22651741  0.05171953    -0.72230
V267        V  0.75495851  0.28713435  0.02010947     1.35240
V268        V  0.79077430  0.25104302  0.01951180     1.35170
C269        C  0.73996305  0.23739690  0.06286263     0.77200
C270        C  0.80464618  0.30090914  0.97658114     0.77260
C271        C  0.74123963  0.23936578  0.97429276     0.77130
C272        C  0.80578540  0.29920238  0.06372656     0.77090
O273        O  0.55205641  0.25979203  0.22751537    -0.72040
O274        O  0.48951241  0.30928667  0.27746653    -0.72250
O275        O  0.55604612  0.30801592  0.27249437    -0.72110
O276        O  0.48604404  0.26183389  0.23174926    -0.72120
O277        O  0.48774872  0.22598908  0.27054593    -0.72080
O278        O  0.55799552  0.27288036  0.31190696    -0.72100
O279        O  0.49189938  0.27316001  0.31585626    -0.72040
O280        O  0.55346473  0.22467862  0.26700583    -0.72230
V281        V  0.52099272  0.28414342  0.25309169     1.35240
V282        V  0.52279226  0.24991559  0.29054796     1.35170
C283        C  0.56287779  0.23319859  0.23875699     0.77200
C284        C  0.47959847  0.29909749  0.30521115     0.77260
C285        C  0.56906425  0.29867039  0.29908223     0.77130
C286        C  0.47498865  0.23589832  0.24392570     0.77090
C287        C  0.19263895  0.35215006  0.18698078    -0.02740
C288        C  0.35255327  0.18475922  0.18697569    -0.02740
C289        C  0.18319788  0.18220629  0.35276475    -0.02740
C290        C  0.27219558  0.26744735  0.27638307    -0.02740
O291        O  0.98299787  0.23033020  0.27415831    -0.72040
O292        O  0.05254116  0.27183272  0.22676062    -0.72250
O293        O  0.04883014  0.22424110  0.27149990    -0.72110
O294        O  0.98603071  0.27806248  0.22872515    -0.72120
O295        O  0.99052015  0.31339542  0.26780290    -0.72080
O296        O  0.05390060  0.25958831  0.31056312    -0.72100
O297        O  0.05715635  0.30765445  0.26531547    -0.72040
O298        O  0.98779747  0.26592959  0.31295553    -0.72230
V299        V  0.01764857  0.25189803  0.25100265     1.35240
V300        V  0.02229759  0.28599891  0.28837319     1.35170
C301        C  0.97370296  0.24087086  0.30184602     0.77200
C302        C  0.06724176  0.29647414  0.23815221     0.77260
C303        C  0.06192366  0.23253186  0.29837780     0.77130
C304        C  0.97696596  0.30461818  0.24121211     0.77090
O305        O  0.26892724  0.98654686  0.31420932    -0.72040
O306        O  0.31222853  0.05269660  0.26362121    -0.72250
O307        O  0.26537872  0.05114329  0.31154605    -0.72110
O308        O  0.31609385  0.98758194  0.26723797    -0.72120
O309        O  0.27963486  0.98540918  0.22830404    -0.72080
O310        O  0.22634646  0.04616503  0.27534666    -0.72100
O311        O  0.27285244  0.05008561  0.22769942    -0.72040
O312        O  0.23297097  0.98197912  0.27508467    -0.72230
V313        V  0.29002785  0.01945564  0.28840578     1.35240
V314        V  0.25372942  0.01596000  0.25234902     1.35170
C315        C  0.24304899  0.97323739  0.30306211     0.77200
C316        C  0.29950499  0.06297875  0.23702857     0.77260
C317        C  0.23701123  0.05909025  0.30150149     0.77130
C318        C  0.30662883  0.97546867  0.24035760     0.77090
O319        O  0.26810132  0.31182207  0.04869939    -0.72040
O320        O  0.31130315  0.25793478  0.98605582    -0.72250
O321        O  0.26913084  0.30868894  0.98250751    -0.72110
O322        O  0.31067302  0.26167981  0.05169207    -0.72120
O323        O  0.26927964  0.22824865  0.05282142    -0.72080
O324        O  0.22791536  0.27537335  0.98427133    -0.72100
O325        O  0.26973581  0.22494665  0.98739981    -0.72040
O326        O  0.22693638  0.27835593  0.05014818    -0.72230
V327        V  0.28899996  0.28444021  0.01723414     1.35240
V328        V  0.24927214  0.25243976  0.01857404     1.35170
C329        C  0.24017309  0.30414079  0.06040289     0.77200
C330        C  0.29790192  0.23197579  0.97623986     0.77260
C331        C  0.24138775  0.29995004  0.97138518     0.77130
C332        C  0.29691741  0.23712207  0.06407057     0.77090
O333        O  0.98561524  0.80637699  0.76466797    -0.72040
O334        O  0.05429419  0.76191177  0.81123551    -0.72250
O335        O  0.05161929  0.80888118  0.76470386    -0.72110
O336        O  0.98904173  0.76039663  0.81216144    -0.72120
O337        O  0.98877585  0.72314438  0.77455372    -0.72080
O338        O  0.05306577  0.77250454  0.72644803    -0.72100
O339        O  0.05433686  0.72509000  0.77320383    -0.72040
O340        O  0.98700186  0.76904530  0.72732181    -0.72230
V341        V  0.02017640  0.78366190  0.78743779     1.35240
V342        V  0.02088321  0.74814680  0.75111420     1.35170
C343        C  0.97457714  0.79499106  0.73784085     0.77200
C344        C  0.06543474  0.73548249  0.80012961     0.77260
C345        C  0.06281259  0.79971405  0.73735168     0.77130
C346        C  0.97805147  0.73384460  0.80166975     0.77090
O347        O  0.77503088  0.98123877  0.73180096    -0.72040
O348        O  0.73018134  0.05024232  0.77486929    -0.72250
O349        O  0.77743936  0.04580856  0.72807357    -0.72110
O350        O  0.72801362  0.98535159  0.77896379    -0.72120
O351        O  0.76622264  0.98625366  0.81616999    -0.72080
O352        O  0.81537524  0.04700812  0.76575353    -0.72100
O353        O  0.76777048  0.05117770  0.81264103    -0.72040
O354        O  0.81302950  0.98249692  0.76926825    -0.72230
V355        V  0.75341429  0.01566589  0.75413655     1.35240
V356        V  0.78985191  0.01670416  0.79022204     1.35170
C357        C  0.80189585  0.97025418  0.74300612     0.77200
C358        C  0.74089878  0.06234328  0.80141295     0.77260
C359        C  0.80477856  0.05673264  0.73829789     0.77130
C360        C  0.73864989  0.97549567  0.80645717     0.77090
O361        O  0.81278908  0.76934153  0.98759162    -0.72040
O362        O  0.76792891  0.81326939  0.05546223    -0.72250
O363        O  0.81527297  0.76755567  0.05312713    -0.72110
O364        O  0.76449323  0.81449470  0.99016818    -0.72120
O365        O  0.72777850  0.77624052  0.99018236    -0.72080
O366        O  0.77761249  0.73034286  0.05458879    -0.72100
O367        O  0.72975771  0.77654930  0.05584151    -0.72040
O368        O  0.77680177  0.73068039  0.98837662    -0.72230
V369        V  0.78934822  0.79036984  0.02160601     1.35240
V370        V  0.75366186  0.75411581  0.02225068     1.35170
C371        C  0.80323768  0.74243413  0.97649108     0.77200
C372        C  0.74082829  0.80320986  0.06669969     0.77260
C373        C  0.80526027  0.74071695  0.06445389     0.77130
C374        C  0.73734540  0.80339248  0.97956396     0.77090
C375        C  0.84909830  0.18721071  0.34873123    -0.02740
C376        C  0.84829063  0.85020522  0.34834866    -0.02740
C377        C  0.92325791  0.24525981  0.33636605    -0.26580
C378        C  0.94590730  0.22540111  0.32010987    -0.14650
C379        C  0.94088648  0.19156872  0.32096498     0.35980
C380        C  0.91178700  0.17885035  0.33518008    -0.26020
C381        C  0.88589372  0.19926398  0.34568892    -0.15260
C382        C  0.89356225  0.23281363  0.34891432     0.37070
N383        N  0.86993813  0.25497792  0.36214719    -0.89510
H384        H  0.92737524  0.27114666  0.33719595     0.18180
H385        H  0.90875930  0.15292110  0.33584468     0.18170
N386        N  0.96529571  0.17014668  0.30755266    -0.88540
H387        H  0.86438813  0.27223141  0.34420892     0.35550
H388        H  0.88082428  0.26686502  0.38205222     0.40650
H389        H  0.96485006  0.17276937  0.28204197     0.40270
H390        H  0.95897786  0.14606029  0.31218162     0.35160
C391        C  0.22014483  0.14592257  0.31698992    -0.26580
C392        C  0.19567763  0.14770746  0.34135826    -0.14650
C393        C  0.18084828  0.11755474  0.35017993     0.35980
C394        C  0.19406709  0.08789728  0.33759345    -0.26020
C395        C  0.22096556  0.08805491  0.31558761    -0.15260
C396        C  0.23362199  0.11744153  0.30535366     0.37070
N397        N  0.25986554  0.11836273  0.28181095    -0.89510
H398        H  0.22701570  0.16687441  0.30419030     0.18180
H399        H  0.18324569  0.06497121  0.34460440     0.18170
N400        N  0.15138397  0.11711631  0.36977021    -0.88540
H401        H  0.28021962  0.12971764  0.29253781     0.35550
H402        H  0.25201494  0.13186527  0.26162703     0.40650
H403        H  0.15677806  0.12631611  0.39299436     0.40270
H404        H  0.14327800  0.09336428  0.37325576     0.35160
C405        C  0.11072666  0.19735482  0.29297506    -0.26580
C406        C  0.08764558  0.21191765  0.31371165    -0.14650
C407        C  0.09144384  0.20812040  0.34805516     0.35980
C408        C  0.12038201  0.19387750  0.36049055    -0.26020
C409        C  0.14695559  0.18556740  0.33968371    -0.15260
C410        C  0.14004338  0.18420825  0.30537592     0.37070
N411        N  0.16400086  0.17253873  0.28250422    -0.89510
H412        H  0.10742758  0.19858205  0.26658369     0.18180
H413        H  0.12256137  0.19133557  0.38681942     0.18170
N414        N  0.06657681  0.21803146  0.37103906    -0.88540
H415        H  0.16983266  0.19117978  0.26614352     0.35550
H416        H  0.15334684  0.15366559  0.26910714     0.40650
H417        H  0.04487265  0.22508927  0.35928496     0.40270
H418        H  0.07571319  0.23798939  0.38391682     0.35160
C419        C  0.19209192  0.23527430  0.31850405    -0.26580
C420        C  0.20535550  0.20972213  0.33739804    -0.14650
C421        C  0.23988398  0.21134898  0.34375343     0.35980
C422        C  0.25978559  0.23232553  0.32571028    -0.26020
C423        C  0.24700213  0.25122264  0.29997644    -0.15260
C424        C  0.21225258  0.25605702  0.30013493     0.37070
N425        N  0.19700928  0.28282324  0.28377675    -0.89510
H426        H  0.16588151  0.23981235  0.31785765     0.18180
H427        H  0.28618852  0.23082995  0.32943030     0.18170
N428        N  0.25563283  0.18966729  0.36620011    -0.88540
H429        H  0.17897694  0.27383527  0.26780956     0.35550
H430        H  0.18518173  0.29704294  0.30139995     0.40650
H431        H  0.27317162  0.17608841  0.35344402     0.40270
H432        H  0.26808671  0.20348352  0.38378582     0.35160
C433        C  0.33828442  0.20159218  0.09269218    -0.26580
C434        C  0.31035921  0.22183293  0.09381492    -0.14650
C435        C  0.29453830  0.22690484  0.12396878     0.35980
C436        C  0.30787490  0.21341850  0.15203908    -0.26020
C437        C  0.33855204  0.19658059  0.15279960    -0.15260
C438        C  0.35148884  0.18754968  0.12175559     0.37070
N439        N  0.37792816  0.16455324  0.11976979    -0.89510
H440        H  0.34933642  0.19624205  0.06911600     0.18180
H441        H  0.29277232  0.21627901  0.17363873     0.18170
N442        N  0.26478096  0.24564518  0.12760378    -0.88540
H443        H  0.38535016  0.16157421  0.09538728     0.35550
H444        H  0.36859809  0.14221560  0.12733252     0.40650
H445        H  0.25628008  0.25519898  0.10556171     0.40270
H446        H  0.27024036  0.26544269  0.14263857     0.35160
C447        C  0.30912853  0.13914990  0.18480837    -0.26580
C448        C  0.34254995  0.14779464  0.19033516    -0.14650
C449        C  0.36320729  0.12260464  0.20262295     0.35980
C450        C  0.34877119  0.09549015  0.21837612    -0.26020
C451        C  0.31455728  0.09010740  0.21764799    -0.15260
C452        C  0.29514527  0.11068360  0.19772359     0.37070
N453        N  0.26102880  0.10337627  0.19128200    -0.89510
H454        H  0.29266901  0.15600449  0.17300803     0.18180
H455        H  0.36442709  0.07803203  0.23063859     0.18170
N456        N  0.39838791  0.12390524  0.19870069    -0.88540
H457        H  0.25070564  0.12036719  0.17528491     0.35550
H458        H  0.24797942  0.10523315  0.21325240     0.40650
H459        H  0.40339758  0.12330704  0.17355348     0.40270
H460        H  0.40956428  0.10348401  0.20894745     0.35160
C461        C  0.31635886  0.25841334  0.23358215    -0.26580
C462        C  0.29326169  0.24396425  0.25499461    -0.14650
C463        C  0.29182387  0.20963370  0.25455606     0.35980
C464        C  0.31418825  0.19158937  0.23678880    -0.26020
C465        C  0.33483081  0.20570434  0.21352291    -0.15260
C466        C  0.33683847  0.24011434  0.21328625     0.37070
N467        N  0.35815571  0.25680288  0.19101577    -0.89510
H468        H  0.31868350  0.28450135  0.23268759     0.18180
H469        H  0.31347903  0.16577390  0.24049600     0.18170
N470        N  0.26699485  0.19112110  0.26966047    -0.88540
H471        H  0.37405834  0.27142785  0.20475429     0.35550
H472        H  0.34376248  0.27181670  0.17612079     0.40650
H473        H  0.24356736  0.20094026  0.26635030     0.40270
H474        H  0.27486081  0.18530799  0.29324059     0.35160
C475        C  0.14718555  0.30659397  0.18939603    -0.26580
C476        C  0.15566852  0.33960473  0.19401790    -0.14650
C477        C  0.12866106  0.35923933  0.20525611     0.35980
C478        C  0.10110288  0.34483397  0.22074783    -0.26020
C479        C  0.09621173  0.31123106  0.22070360    -0.15260
C480        C  0.11867331  0.29223438  0.20280773     0.37070
N481        N  0.11300720  0.25813956  0.19868991    -0.89510
H482        H  0.16134715  0.29166711  0.17333421     0.18180
H483        H  0.08210930  0.36027528  0.23091130     0.18170
N484        N  0.12495680  0.39254735  0.19607382    -0.88540
H485        H  0.13317285  0.24709474  0.18733052     0.35550
H486        H  0.09313575  0.25547142  0.18253637     0.40650
H487        H  0.13903693  0.39832113  0.17545309     0.40270
H488        H  0.13036168  0.40752643  0.21598256     0.35160
C489        C  0.24663195  0.33918454  0.10901153    -0.26580
C490        C  0.22512727  0.32320904  0.08771539    -0.14650
C491        C  0.19095018  0.32340992  0.09538110     0.35980
C492        C  0.18036199  0.33542289  0.12609112    -0.26020
C493        C  0.20280056  0.34718428  0.14994392    -0.15260
C494        C  0.23610787  0.35119784  0.13935964     0.37070
N495        N  0.26013672  0.36663859  0.15964064    -0.89510
H496        H  0.27264410  0.34074832  0.10308935     0.18180
H497        H  0.15421674  0.33481868  0.13115339     0.18170
N498        N  0.16624350  0.31183068  0.07287755    -0.88540
H499        H  0.26967043  0.38647738  0.14684581     0.35550
H500        H  0.27942383  0.35033410  0.16370492     0.40650
H501        H  0.17624410  0.30760941  0.04971295     0.40270
H502        H  0.14935041  0.33057963  0.06921826     0.35160
C503        C  0.26180181  0.32276450  0.24865485    -0.26580
C504        C  0.25503005  0.28956621  0.25049771    -0.14650
C505        C  0.23518039  0.27671402  0.22499796     0.35980
C506        C  0.21958294  0.29745283  0.20270468    -0.26020
C507        C  0.21841848  0.33124644  0.20733951    -0.15260
C508        C  0.24436015  0.34356476  0.22803567     0.37070
N509        N  0.25617000  0.37625445  0.22660598    -0.89510
H510        H  0.28167927  0.33338727  0.26239930     0.18180
H511        H  0.20975651  0.28649859  0.18096967     0.18170
N512        N  0.23069027  0.24256777  0.22140764    -0.88540
H513        H  0.28094191  0.37592946  0.21948271     0.35550
H514        H  0.25576915  0.38574929  0.25040385     0.40650
H515        H  0.23896641  0.23585756  0.19809445     0.40270
H516        H  0.20544498  0.23755076  0.22271215     0.35160
C517        C  0.39866510  0.18422009  0.22920633    -0.26580
C518        C  0.38955127  0.19191844  0.19634213    -0.14650
C519        C  0.41207430  0.21177969  0.17853282     0.35980
C520        C  0.44041909  0.22433460  0.19419047    -0.26020
C521        C  0.44735901  0.21828916  0.22746205    -0.15260
C522        C  0.42662342  0.19704425  0.24478834     0.37070
N523        N  0.43268401  0.18994340  0.27883032    -0.89510
H524        H  0.38197661  0.16991170  0.24402810     0.18180
H525        H  0.45645265  0.24027750  0.18035632     0.18170
N526        N  0.40565888  0.22183132  0.14558521    -0.88540
H527        H  0.41577421  0.17293794  0.28765279     0.35550
H528        H  0.42849771  0.21117719  0.29208685     0.40650
H529        H  0.42545474  0.21444414  0.13097885     0.40270
H530        H  0.40478726  0.24708380  0.14491467     0.35160
C531        C  0.83748170  0.91240341  0.35707300    -0.26580
C532        C  0.84340005  0.88603360  0.33564927    -0.14650
C533        C  0.84199338  0.89316212  0.30129855     0.35980
C534        C  0.83019523  0.92301140  0.29008553    -0.26020
C535        C  0.81884812  0.94675508  0.31162698    -0.15260
C536        C  0.82419966  0.94203483  0.34573296     0.37070
N537        N  0.81740422  0.96675786  0.36953026    -0.89510
H538        H  0.84186488  0.90987015  0.38313030     0.18180
H539        H  0.82753745  0.92651905  0.26382712     0.18170
N540        N  0.84959465  0.86935834  0.27707009    -0.88540
H541        H  0.79751535  0.95892331  0.38378854     0.35550
H542        H  0.81063167  0.98849415  0.35844394     0.40650
H543        H  0.86832388  0.87846321  0.26204515     0.40270
H544        H  0.82869006  0.86548870  0.26250907     0.35160
C545        C  0.81519268  0.09761711  0.34450264    -0.26580
C546        C  0.82132658  0.09028949  0.31144512    -0.14650
C547        C  0.84159861  0.11173920  0.29354951     0.35980
C548        C  0.85287139  0.14037446  0.30813901    -0.26020
C549        C  0.84431475  0.14999998  0.34057532    -0.15260
C550        C  0.82599186  0.12654613  0.35926243     0.37070
N551        N  0.81604112  0.13084507  0.39261417    -0.89510
H552        H  0.80026957  0.08118809  0.35898211     0.18180
H553        H  0.86641414  0.15686297  0.29250155     0.18170
N554        N  0.84958934  0.10646726  0.25973347    -0.88540
H555        H  0.80016790  0.15050410  0.39491402     0.35550
H556        H  0.83675878  0.13261428  0.40759165     0.40650
H557        H  0.82775708  0.10539588  0.24609596     0.40270
H558        H  0.86224672  0.08456899  0.25767755     0.35160
C559        C  0.77557671  0.22094957  0.29772149    -0.26580
C560        C  0.79125358  0.24471557  0.27828730    -0.14650
C561        C  0.82586327  0.24095660  0.27350468     0.35980
C562        C  0.84370844  0.22143851  0.29517492    -0.26020
C563        C  0.82836750  0.20396150  0.32075244    -0.15260
C564        C  0.79369776  0.19979728  0.31768622     0.37070
N565        N  0.77643574  0.17687817  0.33773010    -0.89510
H566        H  0.74891301  0.22014794  0.29906368     0.18180
H567        H  0.86990973  0.21951596  0.29106200     0.18170
N568        N  0.84307785  0.25554735  0.24640116    -0.88540
H569        H  0.75823705  0.18897211  0.35110186     0.35550
H570        H  0.76454256  0.16048524  0.32239377     0.40650
H571        H  0.83617793  0.24332600  0.22507756     0.40270
H572        H  0.86860674  0.25267722  0.24854818     0.35160
C573        C  0.17747562  0.22223296  0.39952747    -0.26580
C574        C  0.18673627  0.19036631  0.39030991    -0.14650
C575        C  0.20687715  0.17310437  0.41306257     0.35980
C576        C  0.22053603  0.18927784  0.44042574    -0.26020
C577        C  0.21478669  0.22230094  0.44616338    -0.15260
C578        C  0.19169408  0.23847985  0.42621657     0.37070
N579        N  0.18452893  0.27216774  0.43134647    -0.89510
H580        H  0.16244444  0.23643664  0.38296913     0.18180
H581        H  0.23729982  0.17618614  0.45633222     0.18170
N582        N  0.21643879  0.14029908  0.40739876    -0.88540
H583        H  0.16617802  0.28014458  0.41521293     0.35550
H584        H  0.20581040  0.28525992  0.42549330     0.40650
H585        H  0.20906061  0.12655763  0.42765507     0.40270
H586        H  0.24215895  0.13920583  0.40603403     0.35160
C587        C  0.94345825  0.83542100  0.33786274    -0.26580
C588        C  0.94376766  0.81458274  0.31061811    -0.14650
C589        C  0.91441670  0.80903767  0.29362815     0.35980
C590        C  0.88482104  0.81938859  0.30662317    -0.26020
C591        C  0.88288915  0.83908534  0.33510565    -0.15260
C592        C  0.91344021  0.84951565  0.34887154     0.37070
N593        N  0.91371075  0.87249403  0.37529867    -0.89510
H594        H  0.96652049  0.84127793  0.34992726     0.18180
H595        H  0.86326730  0.81289540  0.29250079     0.18170
N596        N  0.91403655  0.79306247  0.26249479    -0.88540
H597        H  0.93778919  0.87618346  0.38371981     0.35550
H598        H  0.90579962  0.89462290  0.36578810     0.40650
H599        H  0.92666396  0.77121236  0.26489676     0.40270
H600        H  0.92665786  0.80743553  0.24553842     0.35160
C601        C  0.20670361  0.41301398  0.17705141    -0.26580
C602        C  0.19601491  0.38818071  0.19846218    -0.14650
C603        C  0.19163337  0.39672260  0.23214525     0.35980
C604        C  0.20313159  0.42664298  0.24388529    -0.26020
C605        C  0.22021786  0.44816649  0.22336437    -0.15260
C606        C  0.22005581  0.44223382  0.18919284     0.37070
N607        N  0.23354434  0.46566280  0.16684302    -0.89510
H608        H  0.20707727  0.40899604  0.15085456     0.18180
H609        H  0.20169841  0.43136905  0.27000971     0.18170
N610        N  0.17899869  0.37367710  0.25528869    -0.88540
H611        H  0.22844411  0.45912435  0.14256785     0.35550
H612        H  0.25919521  0.46488705  0.16912307     0.40650
H613        H  0.15860064  0.38396099  0.26695464     0.40270
H614        H  0.19699575  0.36951621  0.27320625     0.35160
C615        C  0.40650783  0.31509675  0.36183803    -0.26580
C616        C  0.39551384  0.34615186  0.35161219    -0.14650
C617        C  0.41876447  0.36421243  0.33241959     0.35980
C618        C  0.44628981  0.34866751  0.31820543    -0.26020
C619        C  0.45336800  0.31608331  0.32442927    -0.15260
C620        C  0.43411645  0.29992422  0.34834548     0.37070
N621        N  0.43977575  0.26693850  0.35753189    -0.89510
H622        H  0.39032598  0.29964051  0.37599109     0.18180
H623        H  0.46215343  0.36231924  0.30188319     0.18170
N624        N  0.41548861  0.39829869  0.32734095    -0.88540
H625        H  0.46316751  0.26500009  0.36813644     0.35550
H626        H  0.43820294  0.25234547  0.33664871     0.40650
H627        H  0.41493647  0.40273391  0.30206657     0.40270
H628        H  0.43643165  0.40964607  0.33694492     0.35160
C629        C  0.36675701  0.33747629  0.41808233    -0.26580
C630        C  0.34806915  0.35588188  0.39540871    -0.14650
C631        C  0.31631176  0.36498232  0.40790110     0.35980
C632        C  0.30047731  0.34535807  0.43102085    -0.26020
C633        C  0.31718858  0.32057699  0.44746470    -0.15260
C634        C  0.35153497  0.31796912  0.44228335     0.37070
N635        N  0.37102081  0.29607114  0.46164933    -0.89510
H636        H  0.39326292  0.33685206  0.41629374     0.18180
H637        H  0.27552005  0.35152078  0.43815042     0.18170
N638        N  0.30334444  0.39722356  0.40574852    -0.88540
H639        H  0.39604849  0.29857244  0.45602699     0.35550
H640        H  0.36458819  0.27259236  0.45461950     0.40650
H641        H  0.31988917  0.41331578  0.41669178     0.40270
H642        H  0.29761870  0.40457941  0.38208856     0.35160
C643        C  0.35158612  0.41810662  0.35726037    -0.26580
C644        C  0.35059762  0.38860850  0.33996438    -0.14650
C645        C  0.34444290  0.39058355  0.30554400     0.35980
C646        C  0.33072783  0.41861309  0.29215859    -0.26020
C647        C  0.32475623  0.44567038  0.31171613    -0.15260
C648        C  0.33712799  0.44631334  0.34402680     0.37070
N649        N  0.33483677  0.47535409  0.36318639    -0.89510
H650        H  0.36196584  0.41867881  0.38171165     0.18180
H651        H  0.32403343  0.41890872  0.26637405     0.18170
N652        N  0.35298123  0.36465124  0.28386811    -0.88540
H653        H  0.34488561  0.47170095  0.38654797     0.35550
H654        H  0.34943194  0.49286189  0.35170872     0.40650
H655        H  0.33184647  0.35779028  0.27096374     0.40270
H656        H  0.37006116  0.37337258  0.26681185     0.35160
C657        C  0.34784609  0.30351744  0.32194260    -0.26580
C658        C  0.33451947  0.32997320  0.33971604    -0.14650
C659        C  0.29952942  0.33359117  0.33690661     0.35980
C660        C  0.28058989  0.31156227  0.31889311    -0.26020
C661        C  0.29492225  0.28688996  0.30013582    -0.15260
C662        C  0.32875762  0.28069323  0.30572141     0.37070
N663        N  0.34427784  0.25081002  0.29672936    -0.89510
H664        H  0.37355706  0.30033547  0.31743760     0.18180
H665        H  0.25427857  0.31581914  0.31689427     0.18170
N666        N  0.28284510  0.36170822  0.34817320    -0.88540
H667        H  0.35316531  0.23978388  0.31808034     0.35550
H668        H  0.36453480  0.25587947  0.28168250     0.40650
H669        H  0.27266230  0.37364408  0.32790672     0.40270
H670        H  0.26344610  0.35440858  0.36339830     0.35160
C671        C  0.35352872  0.62586876  0.34888690    -0.26580
C672        C  0.33940817  0.65435896  0.33511413    -0.14650
C673        C  0.31515197  0.64903223  0.31015599     0.35980
C674        C  0.30903318  0.61836705  0.29774906    -0.26020
C675        C  0.32344805  0.59101343  0.31049559    -0.15260
C676        C  0.34558328  0.59432714  0.33701478     0.37070
N677        N  0.35971772  0.56603296  0.35176223    -0.89510
H678        H  0.37072888  0.62832909  0.36909870     0.18180
H679        H  0.28988473  0.61567105  0.27958170     0.18170
N680        N  0.29401118  0.67373291  0.29825942    -0.88540
H681        H  0.37567382  0.57259385  0.37081487     0.35550
H682        H  0.34048990  0.55289953  0.36246684     0.40650
H683        H  0.26979307  0.66541196  0.29998931     0.40270
H684        H  0.29981370  0.67659762  0.27355061     0.35160
C685        C  0.31670811  0.74495445  0.27924579    -0.26580
C686        C  0.29046830  0.76247677  0.29371103    -0.14650
C687        C  0.28818966  0.75926186  0.32889243     0.35980
C688        C  0.30844497  0.73770290  0.34596690    -0.26020
C689        C  0.33078341  0.71686568  0.33035095    -0.15260
C690        C  0.33752528  0.72392527  0.29678349     0.37070
N691        N  0.36431754  0.70845766  0.27969559    -0.89510
H692        H  0.32146574  0.74578880  0.25370187     0.18180
H693        H  0.30573554  0.73772751  0.37224113     0.18170
N694        N  0.26449170  0.77606398  0.34851926    -0.88540
H695        H  0.36741779  0.71797896  0.25611964     0.35550
H696        H  0.35883811  0.68401468  0.27665264     0.40650
H697        H  0.27703415  0.78982554  0.36610299     0.40270
H698        H  0.24986462  0.75914443  0.36087733     0.35160
C699        C  0.18744940  0.62388289  0.19394941    -0.26580
C700        C  0.20618748  0.65253269  0.19805014    -0.14650
C701        C  0.23925133  0.64843562  0.20997255     0.35980
C702        C  0.24996614  0.61854182  0.22135349    -0.26020
C703        C  0.22916276  0.59188878  0.22285271    -0.15260
C704        C  0.19771043  0.59403678  0.20778212     0.37070
N705        N  0.17584470  0.56675175  0.20575649    -0.89510
H706        H  0.16350719  0.62524351  0.18219980     0.18180
H707        H  0.27543180  0.61618169  0.22878779     0.18170
N708        N  0.26301868  0.67419708  0.20942542    -0.88540
H709        H  0.17251886  0.56139067  0.18088910     0.35550
H710        H  0.18632794  0.54625515  0.21647100     0.40650
H711        H  0.26930443  0.67960369  0.23349758     0.40270
H712        H  0.28442910  0.66629292  0.19766842     0.35160
C713        C  0.23461654  0.68412123  0.14000297    -0.26580
C714        C  0.20156138  0.68975507  0.14948772    -0.14650
C715        C  0.18048942  0.69886074  0.12295833     0.35980
C716        C  0.19439374  0.71384276  0.09460755    -0.26020
C717        C  0.22885738  0.71505909  0.08991451    -0.15260
C718        C  0.24875593  0.69739118  0.11180799     0.37070
N719        N  0.28381609  0.69465537  0.10684945    -0.89510
H720        H  0.25063936  0.66980342  0.15437666     0.18180
H721        H  0.17835215  0.72383284  0.07590725     0.18170
N722        N  0.14592516  0.69131545  0.12363715    -0.88540
H723        H  0.29463658  0.67959441  0.12443956     0.35550
H724        H  0.29404840  0.71759526  0.11054888     0.40650
H725        H  0.14369816  0.66615572  0.12467980     0.40270
H726        H  0.13447966  0.69879495  0.10191067     0.35160
C727        C  0.10924921  0.69263064  0.23804428    -0.26580
C728        C  0.09544937  0.72086343  0.22500340    -0.14650
C729        C  0.11034009  0.73439077  0.19691256     0.35980
C730        C  0.13957034  0.72102322  0.18458837    -0.26020
C731        C  0.15471588  0.69274556  0.19711704    -0.15260
C732        C  0.13842281  0.67880943  0.22521368     0.37070
N733        N  0.15182525  0.65193906  0.24285008    -0.89510
H734        H  0.09821351  0.68182376  0.25964752     0.18180
H735        H  0.15104656  0.73423176  0.16527702     0.18170
N736        N  0.09670971  0.76270274  0.18144895    -0.88540
H737        H  0.13443659  0.63324910  0.24243383     0.35550
H738        H  0.15519905  0.65868873  0.26736900     0.40650
H739        H  0.07442179  0.75584725  0.17052778     0.40270
H740        H  0.11176282  0.77092166  0.16235988     0.35160
C741        C  0.21200448  0.70777493  0.24291541    -0.26580
C742        C  0.20905527  0.71363621  0.20862488    -0.14650
C743        C  0.21775520  0.74553155  0.19814172     0.35980
C744        C  0.22935643  0.76774471  0.22098981    -0.26020
C745        C  0.24180264  0.75812286  0.25191592    -0.15260
C746        C  0.23017602  0.72802149  0.26396820     0.37070
N747        N  0.23600891  0.71783503  0.29726902    -0.89510
H748        H  0.20324109  0.68528017  0.25293026     0.18180
H749        H  0.23255725  0.79225359  0.21232979     0.18170
N750        N  0.21827204  0.75675504  0.16490002    -0.88540
H751        H  0.22474899  0.69553299  0.30172507     0.35550
H752        H  0.22419802  0.73350184  0.31334349     0.40650
H753        H  0.19565069  0.75510028  0.15321595     0.40270
H754        H  0.23709666  0.74540925  0.15204407     0.35160
C755        C  0.35950448  0.69993109  0.41183814    -0.26580
C756        C  0.33788439  0.68877340  0.38690795    -0.14650
C757        C  0.30461353  0.68243861  0.39721401     0.35980
C758        C  0.29306585  0.69457034  0.42708212    -0.26020
C759        C  0.31321988  0.71298122  0.44770254    -0.15260
C760        C  0.34737187  0.71375677  0.44118366     0.37070
N761        N  0.36951699  0.72924640  0.46383673    -0.89510
H762        H  0.38577902  0.70063623  0.40766929     0.18180
H763        H  0.26711714  0.69172591  0.43278182     0.18170
N764        N  0.28062298  0.66647301  0.37725683    -0.88540
H765        H  0.39376744  0.72826421  0.45519945     0.35550
H766        H  0.36895582  0.71606662  0.48573919     0.40650
H767        H  0.28843466  0.64301374  0.37202923     0.40270
H768        H  0.27647750  0.67994502  0.35610928     0.35160
C769        C  0.30951006  0.67632096  0.63822253    -0.26580
C770        C  0.34319931  0.68135415  0.64586046    -0.14650
C771        C  0.36328793  0.69162666  0.61899611     0.35980
C772        C  0.34831830  0.70723740  0.59190231    -0.26020
C773        C  0.31377894  0.70817852  0.58833884    -0.15260
C774        C  0.29468373  0.68957232  0.61038482     0.37070
N775        N  0.25963793  0.68619012  0.60726148    -0.89510
H776        H  0.29325007  0.66481898  0.65532083     0.18180
H777        H  0.36377720  0.71789733  0.57310216     0.18170
N778        N  0.39770544  0.68389024  0.61648538    -0.88540
H779        H  0.25434323  0.67447400  0.58514706     0.35550
H780        H  0.24880971  0.70911763  0.60746519     0.40650
H781        H  0.40524061  0.66816097  0.63504822     0.40270
H782        H  0.41154531  0.70519825  0.61726653     0.35160
C783        C  0.33842357  0.70445964  0.73835723    -0.26580
C784        C  0.33586719  0.70643314  0.70375132    -0.14650
C785        C  0.31666409  0.73185262  0.69078155     0.35980
C786        C  0.29514783  0.74837295  0.71116890    -0.26020
C787        C  0.29698418  0.74655559  0.74576002    -0.15260
C788        C  0.31929546  0.72330413  0.75931931     0.37070
N789        N  0.32419666  0.71826980  0.79396526    -0.89510
H790        H  0.35393725  0.68626354  0.74946217     0.18180
H791        H  0.27730991  0.76293026  0.69852861     0.18170
N792        N  0.32005750  0.74299878  0.65768468    -0.88540
H793        H  0.31328475  0.69620235  0.80023420     0.35550
H794        H  0.31389659  0.73616996  0.80858238     0.40650
H795        H  0.32897790  0.76671625  0.65841893     0.40270
H796        H  0.29660531  0.74390018  0.64702056     0.35160
C797        C  0.30095156  0.61247424  0.72553873    -0.26580
C798        C  0.31961508  0.58514611  0.72104936    -0.14650
C799        C  0.34834269  0.58673402  0.70137867     0.35980
C800        C  0.35813088  0.61703372  0.68810502    -0.26020
C801        C  0.34105073  0.64593921  0.69587662    -0.15260
C802        C  0.30998699  0.64183505  0.71234222     0.37070
N803        N  0.28590406  0.66677114  0.71514122    -0.89510
H804        H  0.27777740  0.61096549  0.73889161     0.18180
H805        H  0.38007383  0.61829250  0.67301518     0.18170
N806        N  0.36766284  0.55855633  0.69417036    -0.88540
H807        H  0.28152085  0.66929007  0.74026119     0.35550
H808        H  0.26402992  0.65891149  0.70404722     0.40650
H809        H  0.35768662  0.53808406  0.70545536     0.40270
H810        H  0.39102578  0.56207365  0.70446717     0.35160
C811        C  0.32354299  0.35822509  0.63047810    -0.26580
C812        C  0.34481891  0.33908983  0.65020349    -0.14650
C813        C  0.35316814  0.30799046  0.63738149     0.35980
C814        C  0.33976664  0.29697451  0.60753976    -0.26020
C815        C  0.31659945  0.31508631  0.58981077    -0.15260
C816        C  0.30928928  0.34664672  0.60101171     0.37070
N817        N  0.28644112  0.36667633  0.58324726    -0.89510
H818        H  0.31478837  0.38120835  0.63924469     0.18180
H819        H  0.34591304  0.27275220  0.59949773     0.18170
N820        N  0.37289617  0.28589103  0.65603665    -0.88540
H821        H  0.28635837  0.39017929  0.59268551     0.35550
H822        H  0.26279923  0.35747203  0.58744902     0.40650
H823        H  0.39307617  0.27905067  0.64167625     0.40270
H824        H  0.35883003  0.26518977  0.66071258     0.35160
C825        C  0.31525720  0.38220412  0.72721706    -0.26580
C826        C  0.33567191  0.38060511  0.69883480    -0.14650
C827        C  0.34591559  0.41064491  0.68523657     0.35980
C828        C  0.33298127  0.44001289  0.69756718    -0.26020
C829        C  0.31302105  0.44020554  0.72572764    -0.15260
C830        C  0.30605358  0.41116433  0.74158213     0.37070
N831        N  0.29107575  0.41085863  0.77346460    -0.89510
H832        H  0.30944545  0.36114464  0.74171745     0.18180
H833        H  0.33957314  0.46268525  0.68595260     0.18170
N834        N  0.36967320  0.41143895  0.65926829    -0.88540
H835        H  0.30836683  0.40162020  0.79004799     0.35550
H836        H  0.27145371  0.39447299  0.77299223     0.40650
H837        H  0.38999271  0.42481954  0.66738434     0.40270
H838        H  0.35926242  0.42370136  0.63934527     0.35160
C839        C  0.29651694  0.31891614  0.69920242    -0.26580
C840        C  0.33078982  0.31977679  0.70490452    -0.14650
C841        C  0.34329962  0.29807594  0.72843957     0.35980
C842        C  0.32169041  0.28331844  0.75023148    -0.26020
C843        C  0.28692716  0.28226314  0.74564821    -0.15260
C844        C  0.27477317  0.30269021  0.72014196     0.37070
N845        N  0.24092993  0.31141813  0.71750131    -0.89510
H846        H  0.28589190  0.33500461  0.68106251     0.18180
H847        H  0.33354379  0.27334880  0.77157226     0.18170
N848        N  0.37743266  0.28928375  0.72998595    -0.88540
H849        H  0.23295722  0.30623591  0.69362224     0.35550
H850        H  0.23874035  0.33633626  0.72128634     0.40650
H851        H  0.37933786  0.26460006  0.72488076     0.40270
H852        H  0.38575869  0.29265202  0.75405801     0.35160
C853        C  0.21831972  0.22002234  0.64810008    -0.26580
C854        C  0.19367058  0.19542291  0.64762448    -0.14650
C855        C  0.18283094  0.18498256  0.61609027     0.35980
C856        C  0.19648396  0.19876077  0.58722634    -0.26020
C857        C  0.21976026  0.22391913  0.58917464    -0.15260
C858        C  0.22986172  0.23497789  0.61998627     0.37070
N859        N  0.25226592  0.26163199  0.62361210    -0.89510
H860        H  0.22958341  0.22889643  0.67023460     0.18180
H861        H  0.18853356  0.19014110  0.56338495     0.18170
N862        N  0.15811398  0.16036495  0.61337668    -0.88540
H863        H  0.24193542  0.28201088  0.61241505     0.35550
H864        H  0.27434521  0.25591548  0.61179376     0.40650
H865        H  0.13819236  0.16996206  0.60031963     0.40270
H866        H  0.16781838  0.14134079  0.59955097     0.35160
C867        C  0.11841328  0.17027345  0.70227712    -0.26580
C868        C  0.13927975  0.18844419  0.68131198    -0.14650
C869        C  0.12353393  0.21623971  0.66741254     0.35980
C870        C  0.09602942  0.23016326  0.68347050    -0.26020
C871        C  0.08347213  0.21678080  0.71268647    -0.15260
C872        C  0.09266983  0.18482269  0.72013412     0.37070
N873        N  0.07610662  0.16717058  0.74567349    -0.89510
H874        H  0.12189939  0.14470040  0.70548071     0.18180
H875        H  0.08662413  0.25306376  0.67459097     0.18170
N876        N  0.13667747  0.23246957  0.63925973    -0.88540
H877        H  0.08650272  0.14422234  0.74860080     0.35550
H878        H  0.05170191  0.16364087  0.73816612     0.40650
H879        H  0.11848418  0.23258342  0.62106087     0.40270
H880        H  0.14175066  0.25650577  0.64531668     0.35160
C881        C  0.22480534  0.09857021  0.68582590    -0.26580
C882        C  0.21691935  0.08941393  0.71804881    -0.14650
C883        C  0.19238557  0.10704292  0.73473310     0.35980
C884        C  0.17860838  0.13429426  0.71996742    -0.26020
C885        C  0.18674537  0.14535406  0.68787003    -0.15260
C886        C  0.21059565  0.12610493  0.67070775     0.37070
N887        N  0.22368252  0.13564689  0.63963466    -0.89510
H888        H  0.24372215  0.08533397  0.67274249     0.18180
H889        H  0.16502338  0.15000437  0.73625298     0.18170
N890        N  0.18340944  0.09925196  0.76802370    -0.88540
H891        H  0.24901385  0.13966485  0.64233675     0.35550
H892        H  0.22040613  0.11654982  0.62314127     0.40650
H893        H  0.16977340  0.07780051  0.76728678     0.40270
H894        H  0.16767071  0.11665653  0.77802167     0.35160
C895        C  0.22473924  0.18830994  0.72384529    -0.26580
C896        C  0.19566479  0.20131859  0.70934353    -0.14650
C897        C  0.18903713  0.23398366  0.71771733     0.35980
C898        C  0.21253049  0.25203980  0.73447233    -0.26020
C899        C  0.24072219  0.23858888  0.74950486    -0.15260
C900        C  0.24187070  0.20424530  0.74851723     0.37070
N901        N  0.25633192  0.18484064  0.77404437    -0.89510
H902        H  0.23405107  0.16464918  0.71798323     0.18180
H903        H  0.20502875  0.27632499  0.73967646     0.18170
N904        N  0.15935890  0.25024458  0.70925488    -0.88540
H905        H  0.25440123  0.16012293  0.76893387     0.35550
H906        H  0.24267341  0.18884167  0.79541070     0.40650
H907        H  0.14775027  0.25760541  0.73091985     0.40270
H908        H  0.16533358  0.27096144  0.69576841     0.35160
C909        C  0.42720764  0.34535430  0.74501168    -0.26580
C910        C  0.44925818  0.32809703  0.72567942    -0.14650
C911        C  0.44402007  0.32756979  0.69121685     0.35980
C912        C  0.41367500  0.33858037  0.67840204    -0.26020
C913        C  0.38761590  0.34794315  0.69929690    -0.15260
C914        C  0.39653995  0.35482066  0.73270819     0.37070
N915        N  0.37370537  0.36797410  0.75576116    -0.89510
H916        H  0.43183777  0.34809764  0.77108803     0.18180
H917        H  0.41005880  0.33753842  0.65214067     0.18170
N918        N  0.46849786  0.31587682  0.66863662    -0.88540
H919        H  0.38389686  0.38906134  0.76566554     0.35550
H920        H  0.37023493  0.35134814  0.77480968     0.40650
H921        H  0.49090613  0.31180609  0.68054092     0.40270
H922        H  0.47336157  0.33448114  0.65193221     0.35160
C923        C  0.63786329  0.35918088  0.72953228    -0.26580
C924        C  0.64379536  0.35450789  0.69557402    -0.14650
C925        C  0.61577005  0.34600124  0.67626599     0.35980
C926        C  0.58807850  0.33186181  0.69198553    -0.26020
C927        C  0.58621709  0.33010518  0.72644202    -0.15260
C928        C  0.60975957  0.34708621  0.74512881     0.37070
N929        N  0.60735900  0.34864442  0.78036733    -0.89510
H930        H  0.65671545  0.36826601  0.74545650     0.18180
H931        H  0.56829954  0.32165918  0.67737903     0.18170
N932        N  0.61565717  0.35026467  0.64128631    -0.88540
H933        H  0.62593238  0.36326905  0.79024197     0.35550
H934        H  0.61147393  0.32537103  0.78954186     0.40650
H935        H  0.61347199  0.37500220  0.63678263     0.40270
H936        H  0.59462964  0.33968706  0.63097601     0.35160
C937        C  0.73634556  0.33056745  0.69717381    -0.26580
C938        C  0.70164030  0.32786925  0.70156659    -0.14650
C939        C  0.69056415  0.30272640  0.72318385     0.35980
C940        C  0.71333527  0.28666998  0.74253857    -0.26020
C941        C  0.74745493  0.29233065  0.74103160    -0.15260
C942        C  0.75891698  0.31378473  0.71649913     0.37070
N943        N  0.79356949  0.31904113  0.71159557    -0.89510
H944        H  0.74643363  0.34822984  0.68039240     0.18180
H945        H  0.70319868  0.26835488  0.75812972     0.18170
N946        N  0.65779200  0.28970213  0.72549845    -0.88540
H947        H  0.79855750  0.34367489  0.71443807     0.35550
H948        H  0.79921778  0.31291832  0.68734416     0.40650
H949        H  0.64832090  0.29451019  0.74882932     0.40270
H950        H  0.64150305  0.29707841  0.70769921     0.35160
C951        C  0.70985366  0.39026224  0.72711367    -0.26580
C952        C  0.69489791  0.38873235  0.69549245    -0.14650
C953        C  0.68999531  0.41943999  0.67971530     0.35980
C954        C  0.70373317  0.44801599  0.69362089    -0.26020
C955        C  0.71913118  0.44770676  0.72458405    -0.15260
C956        C  0.72075608  0.41856091  0.74167829     0.37070
N957        N  0.73289397  0.41697018  0.77465816    -0.89510
H958        H  0.71113478  0.36924579  0.74265290     0.18180
H959        H  0.70105053  0.47081161  0.68078315     0.18170
N960        N  0.67058420  0.42319609  0.65049208    -0.88540
H961        H  0.71766915  0.43113116  0.78947036     0.35550
H962        H  0.75694516  0.42606867  0.77526051     0.40650
H963        H  0.66068701  0.40132622  0.64287553     0.40270
H964        H  0.68612233  0.43140869  0.63179087     0.35160
C965        C  0.67719080  0.63897894  0.72622431    -0.26580
C966        C  0.68790940  0.64890099  0.69487829    -0.14650
C967        C  0.70100581  0.62325381  0.67522110     0.35980
C968        C  0.71620098  0.59669979  0.69073391    -0.26020
C969        C  0.71287466  0.59165265  0.72463029    -0.15260
C970        C  0.69059020  0.61168833  0.74191695     0.37070
N971        N  0.68257229  0.60529375  0.77566785    -0.89510
H972        H  0.66005673  0.65392161  0.73974731     0.18180
H973        H  0.72876253  0.57879613  0.67591426     0.18170
N974        N  0.69378408  0.61985571  0.64085387    -0.88540
H975        H  0.66494033  0.62166435  0.78423249     0.35550
H976        H  0.70386929  0.60951643  0.78946109     0.40650
H977        H  0.67541612  0.63576324  0.63309592     0.40270
H978        H  0.71526625  0.62273564  0.62706389     0.35160
C979        C  0.71286167  0.70247848  0.74084262    -0.26580
C980        C  0.71174520  0.70662539  0.70640076    -0.14650
C981        C  0.73033680  0.73387727  0.69418730     0.35980
C982        C  0.75171256  0.75060940  0.71497313    -0.26020
C983        C  0.74909808  0.74913380  0.74934097    -0.15260
C984        C  0.73068024  0.72257663  0.76188898     0.37070
N985        N  0.72989695  0.71534242  0.79639826    -0.89510
H986        H  0.69846554  0.68501767  0.75341469     0.18180
H987        H  0.76939300  0.76586487  0.70301178     0.18170
N988        N  0.72604959  0.74704746  0.66165763    -0.88540
H989        H  0.73978247  0.69223500  0.79982623     0.35550
H990        H  0.70536009  0.71469679  0.80426110     0.40650
H991        H  0.70228487  0.75642641  0.65964177     0.40270
H992        H  0.74161509  0.76671848  0.65729370     0.35160
C993        C  0.84461790  0.80843063  0.43416976    -0.26580
C994        C  0.81314438  0.81786185  0.44451817    -0.14650
C995        C  0.79720493  0.84296411  0.42729532     0.35980
C996        C  0.81200197  0.85606647  0.39906238    -0.26020
C997        C  0.84247012  0.84486156  0.38622073    -0.15260
C998        C  0.85915491  0.82087723  0.40545541     0.37070
N999        N  0.88961468  0.80668102  0.39525109    -0.89510
H1000       H  0.85753921  0.78958035  0.44745324     0.18180
H1001       H  0.79741652  0.87290203  0.38501909     0.18170
N1002       N  0.76497352  0.85382182  0.43702181    -0.88540
H1003       H  0.88633844  0.78171073  0.39289071     0.35550
H1004       H  0.90710239  0.81061614  0.41371764     0.40650
H1005       H  0.74834152  0.83514553  0.43190591     0.40270
H1006       H  0.75744286  0.87357461  0.42285391     0.35160
C1007       C  0.74183268  0.69632346  0.60845906    -0.26580
C1008       C  0.72218398  0.71598985  0.58840499    -0.14650
C1009       C  0.68816531  0.71882803  0.59603343     0.35980
C1010       C  0.67570885  0.70525230  0.62516129    -0.26020
C1011       C  0.69676846  0.69033382  0.64832184    -0.15260
C1012       C  0.72998874  0.68409415  0.63832576     0.37070
N1013       N  0.75305215  0.66902572  0.66027273    -0.89510
H1014       H  0.76768776  0.69297491  0.60268625     0.18180
H1015       H  0.64992800  0.70906412  0.63068398     0.18170
N1016       N  0.66565262  0.73586897  0.57516288    -0.88540
H1017       H  0.76352073  0.64920117  0.64828622     0.35550
H1018       H  0.77206775  0.68544948  0.66513470     0.40650
H1019       H  0.66747608  0.72643767  0.55142233     0.40270
H1020       H  0.67200091  0.76033578  0.57482531     0.35160
C1021       C  0.77479448  0.81679663  0.29845833    -0.26580
C1022       C  0.78404692  0.78409078  0.29483106    -0.14650
C1023       C  0.80608478  0.77206720  0.31910648     0.35980
C1024       C  0.82474860  0.79370518  0.33777668    -0.26020
C1025       C  0.82119495  0.82754103  0.33403596    -0.15260
C1026       C  0.79205202  0.83816407  0.31852170     0.37070
N1027       N  0.77804041  0.86927259  0.32522564    -0.89510
H1028       H  0.75203792  0.82544258  0.28870896     0.18180
H1029       H  0.84401000  0.78388271  0.35308352     0.18170
N1030       N  0.81032768  0.73796271  0.32401666    -0.88540
H1031       H  0.75478930  0.86579595  0.33573215     0.35550
H1032       H  0.77470622  0.88157127  0.30309345     0.40650
H1033       H  0.80411327  0.73266240  0.34833773     0.40270
H1034       H  0.83526864  0.73234075  0.32090446     0.35160
C1035       C  0.73146683  0.68824707  0.43844603    -0.26580
C1036       C  0.71505187  0.71445299  0.45267573    -0.14650
C1037       C  0.68104259  0.71822606  0.44510749     0.35980
C1038       C  0.66785656  0.70139433  0.41789952    -0.26020
C1039       C  0.68805648  0.68208074  0.39740896    -0.15260
C1040       C  0.71689383  0.67008932  0.41342538     0.37070
N1041       N  0.72842936  0.63764791  0.40826797    -0.89510
H1042       H  0.75551876  0.68104130  0.44743133     0.18180
H1043       H  0.64192326  0.70431357  0.41284079     0.18170
N1044       N  0.65930953  0.73856136  0.46383605    -0.88540
H1045       H  0.74911503  0.63257085  0.42273407     0.35550
H1046       H  0.70975973  0.62194099  0.41597381     0.40650
H1047       H  0.66981301  0.74456802  0.48636357     0.40270
H1048       H  0.63873775  0.72465372  0.47021768     0.35160
C1049       C  0.70341671  0.69597806  0.30368021    -0.26580
C1050       C  0.70123144  0.70313967  0.33752796    -0.14650
C1051       C  0.71662487  0.73174327  0.34835517     0.35980
C1052       C  0.73394299  0.75051847  0.32581885    -0.26020
C1053       C  0.74276862  0.73903430  0.29394366    -0.15260
C1054       C  0.72819159  0.70931565  0.28435914     0.37070
N1055       N  0.74182257  0.68928132  0.25919879    -0.89510
H1056       H  0.69059601  0.67505430  0.29417037     0.18180
H1057       H  0.74124151  0.77403282  0.33467420     0.18170
N1058       N  0.71417011  0.74298628  0.38141141    -0.88540
H1059       H  0.72739464  0.66874527  0.25484819     0.35550
H1060       H  0.76463078  0.68087566  0.26762031     0.40650
H1061       H  0.70332525  0.76591315  0.38121379     0.40270
H1062       H  0.73807153  0.74539427  0.39079295     0.35160
C1063       C  0.74466162  0.61385895  0.32733366    -0.26580
C1064       C  0.72482290  0.58703212  0.32232150    -0.14650
C1065       C  0.69223535  0.58706089  0.33466045     0.35980
C1066       C  0.67959101  0.61547344  0.34961737    -0.26020
C1067       C  0.69744984  0.64472714  0.34873403    -0.15260
C1068       C  0.73213409  0.64197970  0.34099635     0.37070
N1069       N  0.75542932  0.66713381  0.34868275    -0.89510
H1070       H  0.77038795  0.61331230  0.32004448     0.18180
H1071       H  0.65511387  0.61528199  0.36020107     0.18170
N1072       N  0.67247840  0.55828971  0.33263966    -0.88540
H1073       H  0.77308478  0.65783410  0.36484807     0.35550
H1074       H  0.76787317  0.67361912  0.32721719     0.40650
H1075       H  0.66775984  0.55382375  0.30782316     0.40270
H1076       H  0.64954668  0.56207421  0.34369098     0.35160
C1077       C  0.64593564  0.35102307  0.31003362    -0.26580
C1078       C  0.65478015  0.34595676  0.34333800    -0.14650
C1079       C  0.62838555  0.33392016  0.36329052     0.35980
C1080       C  0.60130788  0.31766661  0.34852338    -0.26020
C1081       C  0.59685315  0.31735998  0.31433149    -0.15260
C1082       C  0.61833887  0.33642523  0.29523509     0.37070
N1083       N  0.61275019  0.34047823  0.26059097    -0.89510
H1084       H  0.65944058  0.36758137  0.29503906     0.18180
H1085       H  0.58299230  0.30607746  0.36389962     0.18170
N1086       N  0.62813096  0.33922172  0.39815327    -0.88540
H1087       H  0.63248407  0.35260659  0.24956056     0.35550
H1088       H  0.59223786  0.35553397  0.25784360     0.40650
H1089       H  0.62710423  0.36418829  0.40198517     0.40270
H1090       H  0.60694057  0.32936606  0.40882180     0.35160
C1091       C  0.74778752  0.42659923  0.33938987    -0.26580
C1092       C  0.72643315  0.44760559  0.32304853    -0.14650
C1093       C  0.69199194  0.44167682  0.32525544     0.35980
C1094       C  0.68068041  0.41249139  0.33932539    -0.26020
C1095       C  0.70270465  0.38862720  0.35107877    -0.15260
C1096       C  0.73656694  0.39780649  0.35347493     0.37070
N1097       N  0.76042500  0.37722481  0.36864749    -0.89510
H1098       H  0.77406498  0.43148101  0.33963909     0.18180
H1099       H  0.65436200  0.40833057  0.33990594     0.18170
N1100       N  0.66777014  0.46444302  0.31377405    -0.88540
H1101       H  0.77863641  0.37186774  0.35131270     0.35550
H1102       H  0.77158228  0.39000420  0.38782362     0.40650
H1103       H  0.67859395  0.48642955  0.30742615     0.40270
H1104       H  0.65236877  0.46989635  0.33358425     0.35160
C1105       C  0.71761845  0.34029568  0.29952433    -0.26580
C1106       C  0.71641802  0.33280163  0.33315157    -0.14650
C1107       C  0.74119934  0.31043059  0.34377228     0.35980
C1108       C  0.75691061  0.29028642  0.32116350    -0.26020
C1109       C  0.75151518  0.29332344  0.28734148    -0.15260
C1110       C  0.73228002  0.32001430  0.27668378     0.37070
N1111       N  0.72694002  0.32656127  0.24254346    -0.89510
H1112       H  0.70841815  0.36288805  0.29037703     0.18180
H1113       H  0.77527238  0.27388047  0.33064465     0.18170
N1114       N  0.75412004  0.31033566  0.37641502    -0.88540
H1115       H  0.73574819  0.34979847  0.23742725     0.35550
H1116       H  0.70154703  0.32630751  0.23802546     0.40650
H1117       H  0.75223831  0.28674862  0.38487995     0.40270
H1118       H  0.77928898  0.31580925  0.37541507     0.35160
C1119       C  0.62132113  0.19769379  0.17406399    -0.26580
C1120       C  0.64669981  0.18613416  0.19489878    -0.14650
C1121       C  0.63722394  0.18029174  0.22838150     0.35980
C1122       C  0.60830951  0.19376729  0.24068727    -0.26020
C1123       C  0.58768290  0.21291916  0.22124214    -0.15260
C1124       C  0.59268020  0.21241798  0.18682899     0.37070
N1125       N  0.56940282  0.22597440  0.16408075    -0.89510
H1126       H  0.62458293  0.19789441  0.14773601     0.18180
H1127       H  0.60364267  0.19142751  0.26678514     0.18170
N1128       N  0.65724473  0.16378437  0.25196602    -0.88540
H1129       H  0.57977082  0.24706017  0.15438208     0.35550
H1130       H  0.54728576  0.23210097  0.17552272     0.40650
H1131       H  0.66101112  0.13991913  0.24462744     0.40270
H1132       H  0.67922877  0.17625747  0.25579723     0.35160
C1133       C  0.69787698  0.09202256  0.19772428    -0.26580
C1134       C  0.72215517  0.09262544  0.22247758    -0.14650
C1135       C  0.73411490  0.12242096  0.23340816     0.35980
C1136       C  0.72299299  0.15047678  0.21902117    -0.26020
C1137       C  0.69858161  0.15160124  0.19394086    -0.15260
C1138       C  0.68514527  0.12119452  0.18404957     0.37070
N1139       N  0.65682882  0.11998825  0.16276999    -0.89510
H1140       H  0.68808016  0.06889940  0.18989038     0.18180
H1141       H  0.73197960  0.17155536  0.23151580     0.18170
N1142       N  0.75667713  0.12586436  0.26043818    -0.88540
H1143       H  0.64859009  0.09617491  0.16010428     0.35550
H1144       H  0.66371902  0.12767312  0.13939584     0.40650
H1145       H  0.76392709  0.10387166  0.27015726     0.40270
H1146       H  0.74353540  0.13735590  0.27907729     0.35160
C1147       C  0.70782352  0.17432106  0.12467533    -0.26580
C1148       C  0.68864672  0.19404619  0.14581880    -0.14650
C1149       C  0.68227580  0.22630569  0.13477107     0.35980
C1150       C  0.69741870  0.23838064  0.10647555    -0.26020
C1151       C  0.72029023  0.22020709  0.08864357    -0.15260
C1152       C  0.72431254  0.18721321  0.09689690     0.37070
N1153       N  0.74607865  0.16708388  0.07805258    -0.89510
H1154       H  0.71411261  0.15000606  0.13192356     0.18180
H1155       H  0.69314142  0.26348509  0.10014597     0.18170
N1156       N  0.66350810  0.24851857  0.15426869    -0.88540
H1157       H  0.74435278  0.14302157  0.08574335     0.35550
H1158       H  0.77021144  0.17436139  0.08328343     0.40650
H1159       H  0.64421730  0.25746099  0.13983675     0.40270
H1160       H  0.67870616  0.26799760  0.16060864     0.35160
C1161       C  0.69020025  0.23296966  0.22428688    -0.26580
C1162       C  0.70410372  0.21261138  0.20032142    -0.14650
C1163       C  0.73851826  0.21606091  0.19411875     0.35980
C1164       C  0.75777619  0.23454881  0.21493457    -0.26020
C1165       C  0.74438102  0.25250566  0.24089706    -0.15260
C1166       C  0.70977344  0.25023063  0.24627850     0.37070
N1167       N  0.69412947  0.26252814  0.27522343    -0.89510
H1168       H  0.66398879  0.23440454  0.22805754     0.18180
H1169       H  0.78401010  0.23489198  0.21054086     0.18170
N1170       N  0.75499601  0.19776012  0.16922457    -0.88540
H1171       H  0.68356631  0.24313040  0.28791919     0.35550
H1172       H  0.67512147  0.27812457  0.26812276     0.40650
H1173       H  0.76708282  0.21396772  0.15360628     0.40270
H1174       H  0.77285480  0.18315042  0.18033063     0.35160
C1175       C  0.84189570  0.20234400  0.44425118    -0.26580
C1176       C  0.81090962  0.21744639  0.44637058    -0.14650
C1177       C  0.79383398  0.22398813  0.41735867     0.35980
C1178       C  0.80847162  0.21805534  0.38729862    -0.26020
C1179       C  0.83674561  0.19824615  0.38378535    -0.15260
C1180       C  0.85446161  0.19180258  0.41345679     0.37070
N1181       N  0.88569578  0.17568409  0.41244021    -0.89510
H1182       H  0.85610260  0.19828894  0.46640907     0.18180
H1183       H  0.79680599  0.23010125  0.36714536     0.18170
N1184       N  0.76163291  0.23803789  0.41766040    -0.88540
H1185       H  0.90346849  0.19149317  0.42187631     0.35550
H1186       H  0.88470992  0.15560570  0.42799393     0.40650
H1187       H  0.76287022  0.25958523  0.43086950     0.40270
H1188       H  0.74553841  0.22221701  0.42965063     0.35160
C1189       C  0.71187461  0.36102954  0.62829912    -0.26580
C1190       C  0.68739419  0.34464137  0.64691192    -0.14650
C1191       C  0.67793068  0.31340319  0.63483891     0.35980
C1192       C  0.69327891  0.29967440  0.60748441    -0.26020
C1193       C  0.71955758  0.31469371  0.59163654    -0.15260
C1194       C  0.72805157  0.34647059  0.60124272     0.37070
N1195       N  0.75390968  0.36351400  0.58441488    -0.89510
H1196       H  0.72139012  0.38390624  0.63670082     0.18180
H1197       H  0.68586386  0.27552957  0.60019870     0.18170
N1198       N  0.65471504  0.29352793  0.65174619    -0.88540
H1199       H  0.75775922  0.38627542  0.59490032     0.35550
H1200       H  0.74588108  0.36761547  0.56036693     0.40650
H1201       H  0.63578902  0.28737139  0.63542924     0.40270
H1202       H  0.66656669  0.27212204  0.65868131     0.35160
C1203       C  0.70126680  0.29491480  0.43034669    -0.26580
C1204       C  0.71950105  0.31390261  0.45238875    -0.14650
C1205       C  0.72106033  0.34770050  0.44680281     0.35980
C1206       C  0.70847346  0.36050183  0.41721026    -0.26020
C1207       C  0.69600451  0.34033873  0.39197245    -0.15260
C1208       C  0.69039599  0.30721401  0.40020125     0.37070
N1209       N  0.67692951  0.28503258  0.37662676    -0.89510
H1210       H  0.69829454  0.26924461  0.43482221     0.18180
H1211       H  0.71030142  0.38632812  0.41360605     0.18170
N1212       N  0.73502507  0.36979130  0.47028921    -0.88540
H1213       H  0.65611855  0.27414397  0.38700617     0.35550
H1214       H  0.69422218  0.26679818  0.37228952     0.40650
H1215       H  0.74058750  0.35817493  0.49232065     0.40270
H1216       H  0.71677407  0.38663380  0.47623807     0.35160
C1217       C  0.40062422  0.72044295  0.67977866    -0.26580
C1218       C  0.39037161  0.68948185  0.69094171    -0.14650
C1219       C  0.41059639  0.67491191  0.71564616     0.35980
C1220       C  0.43835936  0.69139592  0.72817690    -0.26020
C1221       C  0.44683314  0.72270853  0.71789293    -0.15260
C1222       C  0.42832180  0.73678499  0.69229821     0.37070
N1223       N  0.43636669  0.76848800  0.68017369    -0.89510
H1224       H  0.38525869  0.73338416  0.66255219     0.18180
H1225       H  0.45243755  0.68001427  0.74763219     0.18170
N1226       N  0.40213209  0.64478868  0.73065286    -0.88540
H1227       H  0.41903399  0.77622026  0.66284705     0.35550
H1228       H  0.45877752  0.76663937  0.66765111     0.40650
H1229       H  0.39913716  0.64846300  0.75587398     0.40270
H1230       H  0.42182001  0.62881643  0.72735353     0.35160
C1231       C  0.59261595  0.69590187  0.70810509    -0.26580
C1232       C  0.59223401  0.72773337  0.72016234    -0.14650
C1233       C  0.62046348  0.74699239  0.71591905     0.35980
C1234       C  0.64878635  0.73381007  0.70223881    -0.26020
C1235       C  0.65125953  0.70089295  0.69267392    -0.15260
C1236       C  0.62134867  0.68274855  0.69339391     0.37070
N1237       N  0.61969635  0.65123932  0.67895894    -0.89510
H1238       H  0.57046104  0.68132315  0.70969523     0.18180
H1239       H  0.66944285  0.74998757  0.70111157     0.18170
N1240       N  0.62185507  0.77993437  0.72688232    -0.88540
H1241       H  0.60171726  0.65170979  0.66055045     0.35550
H1242       H  0.61194199  0.63491513  0.69698411     0.40650
H1243       H  0.61624729  0.78066092  0.75191688     0.40270
H1244       H  0.60448074  0.79351807  0.71390715     0.35160
C1245       C  0.59872902  0.68891853  0.30874547    -0.26580
C1246       C  0.59062228  0.72101439  0.31657589    -0.14650
C1247       C  0.60986199  0.73701486  0.34014573     0.35980
C1248       C  0.63638003  0.72086843  0.35480236    -0.26020
C1249       C  0.64587403  0.68841206  0.34747975    -0.15260
C1250       C  0.62625171  0.67294159  0.32273511     0.37070
N1251       N  0.63513753  0.64253244  0.30880661    -0.89510
H1252       H  0.58459486  0.67644423  0.29003061     0.18180
H1253       H  0.65209087  0.73571237  0.36983434     0.18170
N1254       N  0.60403099  0.77050983  0.34777710    -0.88540
H1255       H  0.63898331  0.64565390  0.28361837     0.35550
H1256       H  0.61530773  0.62662184  0.31182188     0.40650
H1257       H  0.61031886  0.78406267  0.32701461     0.40270
H1258       H  0.61951040  0.77845071  0.36668154     0.35160
C1259       C  0.42753292  0.74084858  0.33872381    -0.26580
C1260       C  0.44685169  0.72154652  0.31817168    -0.14650
C1261       C  0.43773537  0.68877023  0.31403729     0.35980
C1262       C  0.40826422  0.67714920  0.32783280    -0.26020
C1263       C  0.38619259  0.69766398  0.34499663    -0.15260
C1264       C  0.39762823  0.72977497  0.35166993     0.37070
N1265       N  0.37767335  0.75247128  0.36933092    -0.89510
H1266       H  0.43431968  0.76585489  0.34297061     0.18180
H1267       H  0.40175970  0.65264453  0.32174263     0.18170
N1268       N  0.45729728  0.66669148  0.29526072    -0.88540
H1269       H  0.37285899  0.77219317  0.35397466     0.35550
H1270       H  0.39126006  0.76089329  0.38942561     0.40650
H1271       H  0.48137684  0.66695277  0.30447365     0.40270
H1272       H  0.45744994  0.67410718  0.27074989     0.35160
C1273       C  0.21518792  0.85918033  0.63132316    -0.26580
C1274       C  0.19426736  0.84054383  0.65189524    -0.14650
C1275       C  0.18861948  0.80774685  0.64170129     0.35980
C1276       C  0.20230804  0.79558383  0.61278749    -0.26020
C1277       C  0.22395009  0.81364834  0.59357456    -0.15260
C1278       C  0.23010789  0.84612135  0.60264415     0.37070
N1279       N  0.25207069  0.86557334  0.58324909    -0.89510
H1280       H  0.22224831  0.88325258  0.63862595     0.18180
H1281       H  0.19760408  0.77048218  0.60669058     0.18170
N1282       N  0.17127725  0.78520210  0.66207872    -0.88540
H1283       H  0.25443148  0.88870115  0.59333184     0.35550
H1284       H  0.24124068  0.86853368  0.56013355     0.40650
H1285       H  0.18739176  0.76638521  0.66816820     0.40270
H1286       H  0.15186680  0.77526602  0.64847043     0.35160
C1287       C  0.12452317  0.83380268  0.67464367    -0.26580
C1288       C  0.14709408  0.84933717  0.69613072    -0.14650
C1289       C  0.13397406  0.85793296  0.72753270     0.35980
C1290       C  0.10466947  0.84368810  0.73882962    -0.26020
C1291       C  0.08791936  0.82032901  0.72029698    -0.15260
C1292       C  0.09638875  0.81727534  0.68686462     0.37070
N1293       N  0.07710492  0.79690878  0.66568737    -0.89510
H1294       H  0.13012704  0.83168306  0.64884071     0.18180
H1295       H  0.09700333  0.84875211  0.76377676     0.18170
N1296       N  0.15111852  0.87890516  0.74955968    -0.88540
H1297       H  0.08685500  0.79688578  0.64193592     0.35550
H1298       H  0.05353218  0.80699885  0.66403275     0.40650
H1299       H  0.13561774  0.89826553  0.75533002     0.40270
H1300       H  0.15618797  0.86617772  0.77117911     0.35160
C1301       C  0.21660046  0.78623511  0.74994857    -0.26580
C1302       C  0.25103953  0.78949236  0.74682819    -0.14650
C1303       C  0.26291653  0.81324368  0.72467167     0.35980
C1304       C  0.24109962  0.82926305  0.70404914    -0.26020
C1305       C  0.20649022  0.82677366  0.70784471    -0.15260
C1306       C  0.19467911  0.80379050  0.73056684     0.37070
N1307       N  0.16063933  0.79628370  0.73309177    -0.89510
H1308       H  0.20566676  0.76977500  0.76739870     0.18180
H1309       H  0.25137448  0.84655726  0.68689069     0.18170
N1310       N  0.29740623  0.82055281  0.72218982    -0.88540
H1311       H  0.15395159  0.79761581  0.75783753     0.35550
H1312       H  0.15733745  0.77296117  0.72415220     0.40650
H1313       H  0.30065023  0.84505625  0.72762513     0.40270
H1314       H  0.30491479  0.81682581  0.69793424     0.35160
C1315       C  0.21525431  0.88888631  0.72968516    -0.26580
C1316       C  0.19782389  0.88632919  0.69929397    -0.14650
C1317       C  0.19010794  0.91639068  0.68373001     0.35980
C1318       C  0.20327571  0.94574807  0.69650071    -0.26020
C1319       C  0.22240172  0.94631851  0.72547833    -0.15260
C1320       C  0.22803578  0.91722391  0.74211512     0.37070
N1321       N  0.24715509  0.91479745  0.77180039    -0.89510
H1322       H  0.21817523  0.86860914  0.74613471     0.18180
H1323       H  0.19797149  0.96830595  0.68404777     0.18170
N1324       N  0.16832567  0.91848920  0.65596298    -0.88540
H1325       H  0.23125078  0.90769529  0.79066896     0.35550
H1326       H  0.25762318  0.93665339  0.77864891     0.40650
H1327       H  0.15897952  0.89593096  0.64938247     0.40270
H1328       H  0.18192160  0.92717403  0.63602457     0.35160
C1329       C  0.80881818  0.17479750  0.64017167    -0.26580
C1330       C  0.84263006  0.17982828  0.64687189    -0.14650
C1331       C  0.86238230  0.18929184  0.61962979     0.35980
C1332       C  0.84729474  0.20558180  0.59319208    -0.26020
C1333       C  0.81276813  0.20781375  0.59097406    -0.15260
C1334       C  0.79358595  0.18946413  0.61330823     0.37070
N1335       N  0.75831527  0.18786297  0.61156377    -0.89510
H1336       H  0.79284963  0.16421761  0.65839762     0.18180
H1337       H  0.86252165  0.21572171  0.57391513     0.18170
N1338       N  0.89643658  0.18030818  0.61643797    -0.88540
H1339       H  0.75150926  0.17639306  0.58973373     0.35550
H1340       H  0.74874903  0.21132214  0.61206300     0.40650
H1341       H  0.90358448  0.16408300  0.63472127     0.40270
H1342       H  0.91118184  0.20098800  0.61743382     0.35160
C1343       C  0.85846544  0.11768926  0.69028042    -0.26580
C1344       C  0.84214873  0.14695710  0.69862041    -0.14650
C1345       C  0.81199285  0.14307398  0.71656052     0.35980
C1346       C  0.80189566  0.11331722  0.72844607    -0.26020
C1347       C  0.81934274  0.08551611  0.72256524    -0.15260
C1348       C  0.84802410  0.08718052  0.70277937     0.37070
N1349       N  0.86676935  0.05885013  0.69473121    -0.89510
H1350       H  0.87974002  0.11854371  0.67425876     0.18180
H1351       H  0.77930763  0.11211743  0.74277304     0.18170
N1352       N  0.79014891  0.16893172  0.72325350    -0.88540
H1353       H  0.86548070  0.05575634  0.66928861     0.35550
H1354       H  0.85627037  0.03823751  0.70525409     0.40650
H1355       H  0.78935808  0.16967090  0.74877633     0.40270
H1356       H  0.76668107  0.16331479  0.71417348     0.35160
C1357       C  0.82294688  0.23620841  0.75404144    -0.26580
C1358       C  0.79570052  0.25290323  0.74030467    -0.14650
C1359       C  0.78932486  0.24588896  0.70632760     0.35980
C1360       C  0.81283768  0.22939365  0.68771430    -0.26020
C1361       C  0.83592180  0.20874812  0.70270299    -0.15260
C1362       C  0.84134598  0.21344665  0.73670426     0.37070
N1363       N  0.86386941  0.19340629  0.75463520    -0.89510
H1364       H  0.82911351  0.23702117  0.77928473     0.18180
H1365       H  0.81016532  0.23040503  0.66151812     0.18170
N1366       N  0.75769443  0.25140177  0.69125528    -0.88540
H1367       H  0.88122129  0.20835250  0.76610120     0.35550
H1368       H  0.85073461  0.18113094  0.77287961     0.40650
H1369       H  0.74081914  0.23592855  0.70265998     0.40270
H1370       H  0.75767539  0.24520122  0.66636887     0.35160
C1371       C  0.92965894  0.23544259  0.69450247    -0.26580
C1372       C  0.94816566  0.21834797  0.71760992    -0.14650
C1373       C  0.94052133  0.18552262  0.72336682     0.35980
C1374       C  0.91219906  0.17177552  0.70870743    -0.26020
C1375       C  0.89058009  0.19034635  0.68889858    -0.15260
C1376       C  0.90121151  0.22232203  0.68050007     0.37070
N1377       N  0.88127892  0.24316681  0.66051017    -0.89510
H1378       H  0.93571167  0.26039227  0.68898935     0.18180
H1379       H  0.90563282  0.14769818  0.71623446     0.18170
N1380       N  0.96064378  0.16658449  0.74517506    -0.88540
H1381       H  0.89560484  0.25143820  0.64090035     0.35550
H1382       H  0.87466889  0.26333245  0.67451500     0.40650
H1383       H  0.98396032  0.16450982  0.73444860     0.40270
H1384       H  0.95136832  0.14309049  0.74737284     0.35160
C1385       C  0.62512422  0.86138310  0.20591256    -0.26580
C1386       C  0.64901865  0.84109373  0.19117582    -0.14650
C1387       C  0.63929377  0.80820101  0.18512578     0.35980
C1388       C  0.60919653  0.79634660  0.19667858    -0.26020
C1389       C  0.58814188  0.81547167  0.21548589    -0.15260
C1390       C  0.59537598  0.84889466  0.21850776     0.37070
N1391       N  0.57372019  0.87067414  0.23524989    -0.89510
H1392       H  0.63035430  0.88632247  0.21128506     0.18180
H1393       H  0.60382657  0.77088110  0.19330650     0.18170
N1394       N  0.66137479  0.78555985  0.16998862    -0.88540
H1395       H  0.57269767  0.86433700  0.26004318     0.35550
H1396       H  0.55017940  0.86862844  0.22494701     0.40650
H1397       H  0.64950121  0.77547506  0.14961082     0.40270
H1398       H  0.66613651  0.76690050  0.18667502     0.35160
C1399       C  0.67626646  0.83688575  0.12581447    -0.26580
C1400       C  0.69695524  0.85059505  0.15022462    -0.14650
C1401       C  0.72933333  0.85913398  0.13939424     0.35980
C1402       C  0.74249088  0.84404381  0.11137431    -0.26020
C1403       C  0.72376695  0.82234627  0.09256269    -0.15260
C1404       C  0.68950767  0.82092949  0.09843138     0.37070
N1405       N  0.66752782  0.80342064  0.07738355    -0.89510
H1406       H  0.64989758  0.83540553  0.12915054     0.18180
H1407       H  0.76818889  0.84801086  0.10532692     0.18170
N1408       N  0.75007698  0.88026753  0.15821924    -0.88540
H1409       H  0.67346120  0.77887691  0.07843645     0.35550
H1410       H  0.67069360  0.81171422  0.05333636     0.40650
H1411       H  0.74084644  0.90366753  0.15526982     0.40270
H1412       H  0.77407240  0.88078616  0.14886578     0.35160
C1413       C  0.71153634  0.79164921  0.25806811    -0.26580
C1414       C  0.74305943  0.78174389  0.24807986    -0.14650
C1415       C  0.75532763  0.79528078  0.21836574     0.35980
C1416       C  0.73321727  0.80935030  0.19640628    -0.26020
C1417       C  0.70416579  0.82402408  0.20810012    -0.15260
C1418       C  0.69449422  0.81552559  0.24099772     0.37070
N1419       N  0.66912274  0.83160055  0.25913691    -0.89510
H1420       H  0.70188166  0.78459813  0.28170599     0.18180
H1421       H  0.74194725  0.81259234  0.17191675     0.18170
N1422       N  0.78996827  0.79538694  0.21059220    -0.88540
H1423       H  0.64613479  0.82228911  0.25282251     0.35550
H1424       H  0.67062936  0.85662147  0.25628833     0.40650
H1425       H  0.80184709  0.80970595  0.22814378     0.40270
H1426       H  0.79439319  0.80630471  0.18785652     0.35160
C1427       C  0.68164634  0.91388927  0.19107105    -0.26580
C1428       C  0.69652456  0.88495105  0.20265648    -0.14650
C1429       C  0.72426520  0.88942598  0.22439693     0.35980
C1430       C  0.73188095  0.91942990  0.23731497    -0.26020
C1431       C  0.71683503  0.94714832  0.22638369    -0.15260
C1432       C  0.69155808  0.94487723  0.20249818     0.37070
N1433       N  0.67566710  0.97307706  0.18936248    -0.89510
H1434       H  0.66271812  0.91246012  0.17234000     0.18180
H1435       H  0.75260475  0.92130268  0.25419689     0.18170
N1436       N  0.74847004  0.86521682  0.23046364    -0.88540
H1437       H  0.68122277  0.97418424  0.16433032     0.35550
H1438       H  0.68512257  0.99412063  0.19998961     0.40650
H1439       H  0.75148014  0.86382381  0.25568177     0.40270
H1440       H  0.77102705  0.87284884  0.22069204     0.35160
C1441       C  0.62599187  0.19544129  0.85476905    -0.26580
C1442       C  0.65476600  0.19791560  0.83519763    -0.14650
C1443       C  0.64896283  0.20850628  0.80191638     0.35980
C1444       C  0.61966295  0.22366565  0.79308133    -0.26020
C1445       C  0.59335711  0.22610284  0.81461693    -0.15260
C1446       C  0.59582685  0.21046514  0.84556035     0.37070
N1447       N  0.56841490  0.20870537  0.86781271    -0.89510
H1448       H  0.62687219  0.18202891  0.87758025     0.18180
H1449       H  0.61718567  0.23284426  0.76822522     0.18170
N1450       N  0.67108370  0.20090220  0.77561125    -0.88540
H1451       H  0.56228845  0.18430221  0.87063089     0.35550
H1452       H  0.54759385  0.21999552  0.85802525     0.40650
H1453       H  0.67736448  0.22229761  0.76364739     0.40270
H1454       H  0.65863437  0.18652143  0.75849640     0.35160
C1455       C  0.71460966  0.12915292  0.86192913    -0.26580
C1456       C  0.69322323  0.14803072  0.84216892    -0.14650
C1457       C  0.67897985  0.13072267  0.81511297     0.35980
C1458       C  0.69459674  0.10264474  0.80285886    -0.26020
C1459       C  0.72245166  0.08929091  0.81818888    -0.15260
C1460       C  0.73096329  0.10148042  0.84952345     0.37070
N1461       N  0.75654432  0.08638449  0.86856641    -0.89510
H1462       H  0.72122927  0.13714215  0.88620629     0.18180
H1463       H  0.68505976  0.09144184  0.78076997     0.18170
N1464       N  0.64789482  0.13998646  0.80118845    -0.88540
H1465       H  0.75806973  0.09680575  0.89189845     0.35550
H1466       H  0.77898061  0.09157032  0.85708584     0.40650
H1467       H  0.62990814  0.13606734  0.81912221     0.40270
H1468       H  0.64157439  0.12522408  0.78131981     0.35160
C1469       C  0.71348735  0.24080585  0.83094868    -0.26580
C1470       C  0.71422538  0.20685367  0.82589668    -0.14650
C1471       C  0.73495497  0.19519879  0.80060387     0.35980
C1472       C  0.75096099  0.21723315  0.78017169    -0.26020
C1473       C  0.75224276  0.25042829  0.78644553    -0.15260
C1474       C  0.73262023  0.26219855  0.81255451     0.37070
N1475       N  0.72957368  0.29615521  0.81860668    -0.89510
H1476       H  0.69724756  0.25102218  0.84931157     0.18180
H1477       H  0.76006656  0.20858393  0.75749149     0.18170
N1478       N  0.73842604  0.16155012  0.79371934    -0.88540
H1479       H  0.73643836  0.30061360  0.84289225     0.35550
H1480       H  0.70480238  0.30264080  0.81585859     0.40650
H1481       H  0.73130372  0.15730471  0.76941167     0.40270
H1482       H  0.76322893  0.15526149  0.79643571     0.35160
C1483       C  0.74652963  0.20659452  0.92415351    -0.26580
C1484       C  0.72541145  0.22278873  0.94553665    -0.14650
C1485       C  0.69179053  0.22534137  0.93649901     0.35980
C1486       C  0.68112861  0.21346000  0.90568082    -0.26020
C1487       C  0.70215358  0.19698033  0.88327635    -0.15260
C1488       C  0.73652456  0.19555380  0.89333174     0.37070
N1489       N  0.76358861  0.18804207  0.87183121    -0.89510
H1490       H  0.77262386  0.20534322  0.92993127     0.18180
H1491       H  0.65631412  0.21961132  0.89950895     0.18170
N1492       N  0.66749342  0.23981829  0.95760413    -0.88540
H1493       H  0.76929489  0.20809913  0.85732799     0.35550
H1494       H  0.76000498  0.16761528  0.85756060     0.40650
H1495       H  0.67683003  0.24370677  0.98110576     0.40270
H1496       H  0.64864642  0.22285352  0.96093812     0.35160
C1497       C  0.18192209  0.63671744  0.80873947    -0.26580
C1498       C  0.19161738  0.64550605  0.84101477    -0.14650
C1499       C  0.20541582  0.61978779  0.86008825     0.35980
C1500       C  0.22043574  0.59357484  0.84401870    -0.26020
C1501       C  0.21709552  0.58896761  0.81003744    -0.15260
C1502       C  0.19487120  0.60919852  0.79292468     0.37070
N1503       N  0.18715177  0.60320018  0.75901313    -0.89510
H1504       H  0.16778809  0.65343799  0.79400496     0.18180
H1505       H  0.23338184  0.57567005  0.85856550     0.18170
N1506       N  0.20005634  0.61622645  0.89475234    -0.88540
H1507       H  0.17223281  0.62156738  0.74950451     0.35550
H1508       H  0.17299821  0.58207495  0.75810943     0.40650
H1509       H  0.18224004  0.63208899  0.90366282     0.40270
H1510       H  0.22238143  0.61882765  0.90730808     0.35160
C1511       C  0.15359211  0.71433035  0.81059775    -0.26580
C1512       C  0.15539425  0.69546285  0.83973427    -0.14650
C1513       C  0.12444755  0.68478670  0.85258802     0.35980
C1514       C  0.09477693  0.69986747  0.84183092    -0.26020
C1515       C  0.09496206  0.72016646  0.81417801    -0.15260
C1516       C  0.12394930  0.72349943  0.79651601     0.37070
N1517       N  0.12277697  0.73401451  0.76299418    -0.89510
H1518       H  0.17484430  0.72052884  0.79629992     0.18180
H1519       H  0.07151650  0.69426864  0.85358599     0.18170
N1520       N  0.12319852  0.65949992  0.87677623    -0.88540
H1521       H  0.14569195  0.73089132  0.75181918     0.35550
H1522       H  0.11622642  0.75838397  0.76279540     0.40650
H1523       H  0.13015205  0.63800828  0.86528041     0.40270
H1524       H  0.09896672  0.65599369  0.88477802     0.35160
C1525       C  0.24834127  0.75311893  0.82358612    -0.26580
C1526       C  0.25543680  0.74537993  0.79077345    -0.14650
C1527       C  0.24204433  0.71569796  0.77928392     0.35980
C1528       C  0.23023092  0.69293308  0.80201668    -0.26020
C1529       C  0.21736378  0.70296251  0.83268303    -0.15260
C1530       C  0.22553934  0.73557227  0.84171472     0.37070
N1531       N  0.20975401  0.75338869  0.86730623    -0.89510
H1532       H  0.25750225  0.77424015  0.83556512     0.18180
H1533       H  0.22746606  0.66889037  0.79295717     0.18170
N1534       N  0.23859960  0.70919125  0.74475202    -0.88540
H1535       H  0.21993639  0.74761067  0.89000299     0.35550
H1536       H  0.18420142  0.75085333  0.86592389     0.40650
H1537       H  0.22275574  0.72623362  0.73449956     0.40270
H1538       H  0.22658375  0.68709296  0.74109846     0.35160
C1539       C  0.23248833  0.68021678  0.89695377    -0.26580
C1540       C  0.19935451  0.68762455  0.88852208    -0.14650
C1541       C  0.18043572  0.70424979  0.91299900     0.35980
C1542       C  0.19570607  0.71492416  0.94209808    -0.26020
C1543       C  0.22952105  0.71079324  0.94767079    -0.15260
C1544       C  0.24755899  0.69143791  0.92558770     0.37070
N1545       N  0.28181926  0.68436944  0.93020471    -0.89510
H1546       H  0.24796049  0.66761630  0.87946411     0.18180
H1547       H  0.18132194  0.72908156  0.95928925     0.18170
N1548       N  0.14715323  0.71423690  0.90776051    -0.88540
H1549       H  0.28465837  0.67198048  0.95239672     0.35550
H1550       H  0.29500356  0.70604678  0.93111062     0.40650
H1551       H  0.14599452  0.73944991  0.90922833     0.40270
H1552       H  0.13271309  0.70478749  0.92674734     0.35160
C1553       C  0.80817328  0.64150379  0.18764862    -0.26580
C1554       C  0.84253896  0.64770787  0.19028839    -0.14650
C1555       C  0.86175706  0.61998173  0.19880037     0.35980
C1556       C  0.84666823  0.59281336  0.21374153    -0.26020
C1557       C  0.81226199  0.59068084  0.21725220    -0.15260
C1558       C  0.79282492  0.61469243  0.20236206     0.37070
N1559       N  0.75740670  0.61240816  0.20287361    -0.89510
H1560       H  0.79239823  0.65704995  0.17386121     0.18180
H1561       H  0.86199617  0.57301000  0.22213138     0.18170
N1562       N  0.89608542  0.61816965  0.19071970    -0.88540
H1563       H  0.74667259  0.63189075  0.19048621     0.35550
H1564       H  0.74988957  0.61437185  0.22734585     0.40650
H1565       H  0.89926608  0.59894708  0.17437932     0.40270
H1566       H  0.90930453  0.61261211  0.21203732     0.35160
C1567       C  0.83787796  0.67615989  0.12428836    -0.26580
C1568       C  0.85213215  0.69588573  0.14892930    -0.14650
C1569       C  0.85639361  0.72924439  0.14082632     0.35980
C1570       C  0.84286163  0.74218600  0.11207187    -0.26020
C1571       C  0.82461367  0.72330489  0.09024108    -0.15260
C1572       C  0.82401161  0.68929104  0.09532957     0.37070
N1573       N  0.80968400  0.66726074  0.07198381    -0.89510
H1574       H  0.83614998  0.65029912  0.12773146     0.18180
H1575       H  0.84487569  0.76803142  0.10806822     0.18170
N1576       N  0.87263438  0.75104345  0.16269496    -0.88540
H1577       H  0.82788109  0.65050829  0.06561925     0.35550
H1578       H  0.80386309  0.67893481  0.05005654     0.40650
H1579       H  0.85603474  0.76928314  0.16920749     0.40270
H1580       H  0.89234439  0.76174265  0.15019771     0.35160
C1581       C  0.80200724  0.71209134  0.19751346    -0.26580
C1582       C  0.83527892  0.70754675  0.20658032    -0.14650
C1583       C  0.84591028  0.72841511  0.23252528     0.35980
C1584       C  0.82303894  0.74375814  0.25236841    -0.26020
C1585       C  0.78873555  0.74074325  0.24853636    -0.15260
C1586       C  0.77866089  0.72630638  0.21810537     0.37070
N1587       N  0.74521363  0.72787613  0.20629404    -0.89510
H1588       H  0.79374182  0.70604940  0.17311423     0.18180
H1589       H  0.83369776  0.76131205  0.26854780     0.18170
N1590       N  0.87855599  0.74057062  0.23690085    -0.88540
H1591       H  0.73734489  0.70447881  0.20049692     0.35550
H1592       H  0.74517433  0.74060427  0.18410043     0.40650
H1593       H  0.89364936  0.74156701  0.21646372     0.40270
H1594       H  0.88894980  0.73176359  0.25855956     0.35160
C1595       C  0.91921097  0.69713313  0.17652688    -0.26580
C1596       C  0.89388401  0.68492911  0.19700163    -0.14650
C1597       C  0.90305152  0.67766308  0.23014077     0.35980
C1598       C  0.93328740  0.68904111  0.24296337    -0.26020
C1599       C  0.95407873  0.70888910  0.22416088    -0.15260
C1600       C  0.94845895  0.71041313  0.18992891     0.37070
N1601       N  0.97174274  0.72664521  0.16905537    -0.89510
H1602       H  0.91519904  0.69936917  0.15040310     0.18180
H1603       H  0.93814750  0.68589268  0.26892936     0.18170
N1604       N  0.88009286  0.66252537  0.25211586    -0.88540
H1605       H  0.96386189  0.72610818  0.14461021     0.35550
H1606       H  0.99383618  0.71366927  0.17006628     0.40650
H1607       H  0.87538573  0.67814277  0.27171175     0.40270
H1608       H  0.89130287  0.64188521  0.26184305     0.35160
C1609       C  0.22402285  0.85565657  0.40453352    -0.26580
C1610       C  0.19072290  0.84936599  0.39482535    -0.14650
C1611       C  0.17368039  0.82655576  0.41529198     0.35980
C1612       C  0.18960843  0.81222219  0.44263595    -0.26020
C1613       C  0.22283497  0.81819957  0.45031405    -0.15260
C1614       C  0.23997148  0.84075677  0.43109787     0.37070
N1615       N  0.27435141  0.84720897  0.43709102    -0.89510
H1616       H  0.23974154  0.87022561  0.38935564     0.18180
H1617       H  0.17599323  0.79474669  0.45711457     0.18170
N1618       N  0.14120617  0.81529094  0.40799057    -0.88540
H1619       H  0.28308534  0.86565060  0.42182712     0.35550
H1620       H  0.28750028  0.82639928  0.43072453     0.40650
H1621       H  0.12620314  0.82037138  0.42820974     0.40270
H1622       H  0.14175795  0.79015634  0.40541922     0.35160
C1623       C  0.08709289  0.83704886  0.34499337    -0.26580
C1624       C  0.08924878  0.82305895  0.31337467    -0.14650
C1625       C  0.11821286  0.82778394  0.29504026     0.35980
C1626       C  0.14436322  0.84388941  0.30949050    -0.26020
C1627       C  0.14567450  0.85150045  0.34359774    -0.15260
C1628       C  0.11467791  0.85301573  0.35947436     0.37070
N1629       N  0.11117676  0.87087379  0.38951132    -0.89510
H1630       H  0.06393325  0.83579003  0.35815619     0.18180
H1631       H  0.16543645  0.84838127  0.29379184     0.18170
N1632       N  0.12316565  0.81549903  0.26225806    -0.88540
H1633       H  0.08672782  0.86999592  0.39758797     0.35550
H1634       H  0.11648701  0.89510651  0.38452638     0.40650
H1635       H  0.10366699  0.80142491  0.25385229     0.40270
H1636       H  0.14341081  0.79985258  0.26296806     0.35160
C1637       C  0.23658132  0.85178845  0.32796319    -0.26580
C1638       C  0.20572594  0.84004585  0.33872273    -0.14650
C1639       C  0.19815299  0.80746345  0.33067616     0.35980
C1640       C  0.21230473  0.79449895  0.30278829    -0.26020
C1641       C  0.24411824  0.80411983  0.29338588    -0.15260
C1642       C  0.25757844  0.83176164  0.30961283     0.37070
N1643       N  0.29200331  0.83946326  0.30743570    -0.89510
H1644       H  0.24554571  0.87528059  0.33529987     0.18180
H1645       H  0.19950462  0.77467204  0.29147190     0.18170
N1646       N  0.17311961  0.78954900  0.34775037    -0.88540
H1647       H  0.29441450  0.86308687  0.29861465     0.35550
H1648       H  0.30175732  0.83905472  0.33120089     0.40650
H1649       H  0.18486040  0.77870941  0.36776531     0.40270
H1650       H  0.16423208  0.77052178  0.33333030     0.35160
C1651       C  0.20729422  0.91776559  0.37005475    -0.26580
C1652       C  0.18582566  0.89813086  0.35112434    -0.14650
C1653       C  0.17670896  0.91184101  0.32014935     0.35980
C1654       C  0.19775930  0.93347632  0.30465170    -0.26020
C1655       C  0.22379817  0.94833795  0.32136387    -0.15260
C1656       C  0.22710047  0.94207548  0.35532949     0.37070
N1657       N  0.25038637  0.96004190  0.37469154    -0.89510
H1658       H  0.20950950  0.91389617  0.39614998     0.18180
H1659       H  0.19112954  0.94134193  0.28013205     0.18170
N1660       N  0.14310287  0.91371571  0.30911269    -0.88540
H1661       H  0.25029523  0.95189429  0.39899654     0.35550
H1662       H  0.24242566  0.98406959  0.37523255     0.40650
H1663       H  0.12607967  0.90741917  0.32712971     0.40270
H1664       H  0.13989550  0.90097673  0.28721835     0.35160
C1665       C  0.82535296  0.80833321  0.64875822    -0.26580
C1666       C  0.84245000  0.83845194  0.64978143    -0.14650
C1667       C  0.85174422  0.85121587  0.61844470     0.35980
C1668       C  0.83746531  0.83829405  0.58943528    -0.26020
C1669       C  0.81685549  0.81094317  0.59043583    -0.15260
C1670       C  0.81277273  0.79473900  0.62040107     0.37070
N1671       N  0.79590483  0.76424905  0.62355478    -0.89510
H1672       H  0.82204945  0.79356784  0.67038672     0.18180
H1673       H  0.84306527  0.84929090  0.56594327     0.18170
N1674       N  0.87603790  0.87624042  0.61479387    -0.88540
H1675       H  0.81299229  0.74712677  0.63175966     0.35550
H1676       H  0.78686442  0.75573100  0.60136043     0.40650
H1677       H  0.88324060  0.88514091  0.63753021     0.40270
H1678       H  0.86544258  0.89548448  0.60195536     0.35160
C1679       C  0.84584168  0.81744859  0.73735817    -0.26580
C1680       C  0.83207907  0.83456448  0.71089486    -0.14650
C1681       C  0.79705936  0.83630150  0.70938101     0.35980
C1682       C  0.77799105  0.81670694  0.72957681    -0.26020
C1683       C  0.79229045  0.79486394  0.75206800    -0.15260
C1684       C  0.82656668  0.79850306  0.75805331     0.37070
N1685       N  0.84196010  0.78546933  0.78651275    -0.89510
H1686       H  0.87175567  0.81934661  0.74324905     0.18180
H1687       H  0.75140070  0.81755828  0.72678974     0.18170
N1688       N  0.78056994  0.85610936  0.68572028    -0.88540
H1689       H  0.85394697  0.80401288  0.79927352     0.35550
H1690       H  0.85910741  0.76879777  0.77802956     0.40650
H1691       H  0.76506331  0.87201067  0.69832463     0.40270
H1692       H  0.76584265  0.84128356  0.67093396     0.35160
C1693       C  0.89755832  0.80676485  0.68588863    -0.26580
C1694       C  0.89114390  0.84031261  0.68896913    -0.14650
C1695       C  0.91760519  0.85958011  0.70150926     0.35980
C1696       C  0.94422859  0.84442319  0.71802549    -0.26020
C1697       C  0.94722541  0.81064146  0.71917695    -0.15260
C1698       C  0.92451822  0.79179492  0.70121322     0.37070
N1699       N  0.92760309  0.75713621  0.70018502    -0.89510
H1700       H  0.87948915  0.79108752  0.67487627     0.18180
H1701       H  0.96313726  0.85908735  0.72952992     0.18170
N1702       N  0.91795354  0.89410084  0.69755145    -0.88540
H1703       H  0.90925730  0.74684958  0.68544749     0.35550
H1704       H  0.92370694  0.74836108  0.72394189     0.40650
H1705       H  0.92248161  0.89897135  0.67283113     0.40270
H1706       H  0.93760376  0.90438805  0.71051250     0.35160
C1707       C  0.85548534  0.89663538  0.72674884    -0.26580
C1708       C  0.84735117  0.88789058  0.69393021    -0.14650
C1709       C  0.82639494  0.90979815  0.67661546     0.35980
C1710       C  0.81312817  0.93704120  0.69276141    -0.26020
C1711       C  0.81952715  0.94343399  0.72601789    -0.15260
C1712       C  0.84175333  0.92330447  0.74288701     0.37070
N1713       N  0.84883919  0.92858376  0.77708961    -0.89510
H1714       H  0.87046242  0.88044453  0.74132943     0.18180
H1715       H  0.79646244  0.95267842  0.67931132     0.18170
N1716       N  0.81609722  0.90393813  0.64359494    -0.88540
H1717       H  0.86644858  0.91214852  0.78563214     0.35550
H1718       H  0.82721706  0.92383110  0.79022319     0.40650
H1719       H  0.82283745  0.92401146  0.62949795     0.40270
H1720       H  0.79036476  0.90246734  0.64301500     0.35160
C1721       C  0.84911519  0.44664588  0.21371927    -0.26580
C1722       C  0.81458136  0.44956650  0.21483347    -0.14650
C1723       C  0.79531300  0.42703020  0.19747282     0.35980
C1724       C  0.81069021  0.40063107  0.18251784    -0.26020
C1725       C  0.84467757  0.39400329  0.18639779    -0.15260
C1726       C  0.86442989  0.41995883  0.19822128     0.37070
N1727       N  0.89954820  0.41989695  0.19368439    -0.89510
H1728       H  0.86418896  0.46531117  0.22484613     0.18180
H1729       H  0.79518964  0.38385145  0.16986835     0.18170
N1730       N  0.75992724  0.42975121  0.19667176    -0.88540
H1731       H  0.91011347  0.44090032  0.20336523     0.35550
H1732       H  0.90400197  0.42025060  0.16841362     0.40650
H1733       H  0.75131301  0.42600532  0.22057098     0.40270
H1734       H  0.74947525  0.41147343  0.18229195     0.35160
C1735       C  0.84090169  0.36454516  0.12050100    -0.26580
C1736       C  0.85305945  0.34508728  0.14636774    -0.14650
C1737       C  0.85661229  0.31123805  0.13999471     0.35980
C1738       C  0.84391018  0.29775404  0.11112874    -0.26020
C1739       C  0.82564975  0.31643789  0.08899286    -0.15260
C1740       C  0.82575833  0.35048159  0.09263572     0.37070
N1741       N  0.81004895  0.37067148  0.06853065    -0.89510
H1742       H  0.84009233  0.39052330  0.12321377     0.18180
H1743       H  0.84515822  0.27175336  0.10804970     0.18170
N1744       N  0.86957198  0.28980737  0.16452785    -0.88540
H1745       H  0.81462579  0.39505952  0.07352821     0.35550
H1746       H  0.78458863  0.36760866  0.07098635     0.40650
H1747       H  0.88936466  0.27718169  0.15427559     0.40270
H1748       H  0.85131378  0.27295752  0.17057439     0.35160
C1749       C  0.78324181  0.30127351  0.20878204    -0.26580
C1750       C  0.79007080  0.29569526  0.24196831    -0.14650
C1751       C  0.81359114  0.31618063  0.25697377     0.35980
C1752       C  0.83194965  0.33766048  0.23789419    -0.26020
C1753       C  0.83072573  0.33763244  0.20323091    -0.15260
C1754       C  0.80212195  0.32178957  0.18964360     0.37070
N1755       N  0.78972693  0.32768028  0.15717919    -0.89510
H1756       H  0.76153007  0.29142264  0.19715341     0.18180
H1757       H  0.84592633  0.35477768  0.25149128     0.18170
N1758       N  0.81925756  0.31514603  0.29170480    -0.88540
H1759       H  0.78702666  0.30541399  0.14531487     0.35550
H1760       H  0.76604743  0.33752863  0.15910687     0.40650
H1761       H  0.81444915  0.33808550  0.30134678     0.40270
H1762       H  0.84415852  0.30990100  0.29573159     0.35160
C1763       C  0.94626858  0.32328305  0.19125223    -0.26580
C1764       C  0.95037386  0.32416737  0.22542144    -0.14650
C1765       C  0.92907349  0.34405263  0.24373854     0.35980
C1766       C  0.90221227  0.35905099  0.22797857    -0.26020
C1767       C  0.89322823  0.35203565  0.19510833    -0.15260
C1768       C  0.91948286  0.33895981  0.17571929     0.37070
N1769       N  0.91992772  0.34260121  0.14062422    -0.89510
H1770       H  0.96445352  0.31082289  0.17647295     0.18180
H1771       H  0.88880749  0.37694875  0.24168770     0.18170
N1772       N  0.93406563  0.34840431  0.27841901    -0.88540
H1773       H  0.94098786  0.33201620  0.13048979     0.35550
H1774       H  0.92131777  0.36733904  0.13554788     0.40650
H1775       H  0.92996875  0.32606239  0.28974942     0.40270
H1776       H  0.91648659  0.36421688  0.28810148     0.35160
C1777       C  0.20308876  0.39011293  0.80280963    -0.26580
C1778       C  0.19412182  0.38656150  0.83646536    -0.14650
C1779       C  0.19177714  0.41552699  0.85508895     0.35980
C1780       C  0.20524050  0.44460895  0.84226490    -0.26020
C1781       C  0.21496654  0.44669821  0.80918268    -0.15260
C1782       C  0.21050743  0.41987171  0.78871634     0.37070
N1783       N  0.21244455  0.42292404  0.75348105    -0.89510
H1784       H  0.20081275  0.36992131  0.78608769     0.18180
H1785       H  0.20683522  0.46595320  0.85758366     0.18170
N1786       N  0.17605297  0.41539188  0.88666953    -0.88540
H1787       H  0.20788359  0.40079404  0.74193413     0.35550
H1788       H  0.23625860  0.42978322  0.74685925     0.40650
H1789       H  0.15125197  0.40947091  0.88302152     0.40270
H1790       H  0.17650301  0.43853223  0.89697294     0.35160
C1791       C  0.12233296  0.33330134  0.86331579    -0.26580
C1792       C  0.14377156  0.35060750  0.84234002    -0.14650
C1793       C  0.12872032  0.36140849  0.81244302     0.35980
C1794       C  0.10177819  0.34455554  0.79950178    -0.26020
C1795       C  0.08662698  0.31955055  0.81689442    -0.15260
C1796       C  0.09512292  0.31576717  0.85043020     0.37070
N1797       N  0.07691402  0.29397039  0.87106202    -0.89510
H1798       H  0.12814640  0.33096910  0.88905826     0.18180
H1799       H  0.09273931  0.35113407  0.77537332     0.18170
N1800       N  0.13761823  0.39141004  0.79715312    -0.88540
H1801       H  0.08512352  0.29567085  0.89534677     0.35550
H1802       H  0.08246794  0.27046588  0.86348115     0.40650
H1803       H  0.13152482  0.40993921  0.81350330     0.40270
H1804       H  0.12401065  0.39560010  0.77574677     0.35160
C1805       C  0.21128371  0.27644563  0.80007357    -0.26580
C1806       C  0.24385435  0.28476597  0.79122663    -0.14650
C1807       C  0.25733467  0.31268958  0.80640737     0.35980
C1808       C  0.23706476  0.33181362  0.82624622    -0.26020
C1809       C  0.20236590  0.32726858  0.82782369    -0.15260
C1810       C  0.18957854  0.29914657  0.81272816     0.37070
N1811       N  0.15510033  0.29238667  0.81043634    -0.89510
H1812       H  0.20124942  0.25278488  0.79479830     0.18180
H1813       H  0.24824915  0.35187038  0.83922997     0.18170
N1814       N  0.29160995  0.32099073  0.80313456    -0.88540
H1815       H  0.15031442  0.26972573  0.82077577     0.35550
H1816       H  0.14900346  0.29090034  0.78552786     0.40650
H1817       H  0.30532545  0.30404951  0.81635207     0.40270
H1818       H  0.29662808  0.34343154  0.81383801     0.35160
C1819       C  0.21822526  0.35928259  0.90199853    -0.26580
C1820       C  0.19395656  0.34153759  0.88427890    -0.14650
C1821       C  0.18740529  0.30957253  0.89669662     0.35980
C1822       C  0.20155844  0.29856149  0.92586150    -0.26020
C1823       C  0.22518788  0.31629807  0.94287186    -0.15260
C1824       C  0.23359253  0.34726209  0.93064949     0.37070
N1825       N  0.25807928  0.36697400  0.94622353    -0.89510
H1826       H  0.22792060  0.38165971  0.89252099     0.18180
H1827       H  0.19547750  0.27426711  0.93386163     0.18170
N1828       N  0.16864767  0.28626525  0.87866846    -0.88540
H1829       H  0.28070956  0.35495728  0.94533747     0.35550
H1830       H  0.25131952  0.37039074  0.97073937     0.40650
H1831       H  0.14958660  0.27771983  0.89363757     0.40270
H1832       H  0.18398575  0.26658810  0.87348773     0.35160
C1833       C  0.80834907  0.64239315  0.85431232    -0.26580
C1834       C  0.84152189  0.65042103  0.84661444    -0.14650
C1835       C  0.85870549  0.62783990  0.82622920     0.35980
C1836       C  0.84269343  0.59975566  0.81478462    -0.26020
C1837       C  0.80953180  0.59316156  0.82185742    -0.15260
C1838       C  0.79263052  0.61453454  0.84290202     0.37070
N1839       N  0.75885913  0.60980883  0.85195891    -0.89510
H1840       H  0.79349419  0.65921251  0.86830378     0.18180
H1841       H  0.85614868  0.58367485  0.79863227     0.18170
N1842       N  0.89116630  0.63388383  0.81407053    -0.88540
H1843       H  0.75675552  0.58787598  0.86453092     0.35550
H1844       H  0.74448965  0.60913103  0.83068786     0.40650
H1845       H  0.89041965  0.63413678  0.78840963     0.40270
H1846       H  0.90628238  0.61464927  0.82121680     0.35160
C1847       C  0.80346641  0.72616261  0.84846987    -0.26580
C1848       C  0.82650795  0.70559417  0.83369162    -0.14650
C1849       C  0.82669197  0.70452403  0.79880696     0.35980
C1850       C  0.80753931  0.72616974  0.78069481    -0.26020
C1851       C  0.78793786  0.75015381  0.79582740    -0.15260
C1852       C  0.78622812  0.74920409  0.83067555     0.37070
N1853       N  0.76853818  0.77166677  0.84985268    -0.89510
H1854       H  0.79918106  0.72574366  0.87460797     0.18180
H1855       H  0.80932130  0.72528470  0.75416056     0.18170
N1856       N  0.84790330  0.68289873  0.78142316    -0.88540
H1857       H  0.74334188  0.76884900  0.84604492     0.35550
H1858       H  0.77793910  0.79467050  0.84540613     0.40650
H1859       H  0.86369204  0.69656946  0.76660196     0.40270
H1860       H  0.83329839  0.66846399  0.76613902     0.35160
C1861       C  0.85676409  0.72840651  0.90067965    -0.26580
C1862       C  0.84922978  0.69603174  0.89203987    -0.14650
C1863       C  0.83492331  0.67699823  0.91751296     0.35980
C1864       C  0.81982070  0.69235222  0.94476389    -0.26020
C1865       C  0.82240135  0.72594356  0.94970816    -0.15260
C1866       C  0.84414635  0.74320033  0.92882264     0.37070
N1867       N  0.85329664  0.77619905  0.93452419    -0.89510
H1868       H  0.87022610  0.74385223  0.88415266     0.18180
H1869       H  0.80651715  0.67777374  0.96245735     0.18170
N1870       N  0.83699391  0.64245027  0.91713171    -0.88540
H1871       H  0.86525989  0.77777582  0.95721320     0.35550
H1872       H  0.83223950  0.79064476  0.93462707     0.40650
H1873       H  0.81322995  0.63305661  0.92014674     0.40270
H1874       H  0.85082675  0.63528683  0.93754664     0.35160
C1875       C  0.89066923  0.72819020  0.82731934    -0.26580
C1876       C  0.88750733  0.69762444  0.84303369    -0.14650
C1877       C  0.91762191  0.68207543  0.85158100     0.35980
C1878       C  0.94760102  0.69237481  0.83663390    -0.26020
C1879       C  0.94838084  0.72059875  0.81735093    -0.15260
C1880       C  0.92031104  0.73965860  0.81511663     0.37070
N1881       N  0.92244466  0.77147019  0.80110334    -0.89510
H1882       H  0.87031079  0.74478678  0.82623913     0.18180
H1883       H  0.97026820  0.67919901  0.84091343     0.18170
N1884       N  0.91753826  0.65556764  0.87439049    -0.88540
H1885       H  0.91117471  0.78809790  0.81681011     0.35550
H1886       H  0.91102746  0.77162139  0.77820250     0.40650
H1887       H  0.91046527  0.66465183  0.89725033     0.40270
H1888       H  0.94139890  0.64645183  0.87731741     0.35160
C1889       C  0.41627316  0.17755554  0.83822295    -0.26580
C1890       C  0.39010172  0.19723429  0.84961602    -0.14650
C1891       C  0.39641666  0.23109275  0.85099947     0.35980
C1892       C  0.42460516  0.24419892  0.83655030    -0.26020
C1893       C  0.44799222  0.22484710  0.82090951    -0.15260
C1894       C  0.44474427  0.19078678  0.82340053     0.37070
N1895       N  0.46962288  0.16886924  0.81173632    -0.89510
H1896       H  0.41457666  0.15152343  0.83998606     0.18180
H1897       H  0.42746472  0.27027463  0.83658177     0.18170
N1898       N  0.37403313  0.25279707  0.86664013    -0.88540
H1899       H  0.47752549  0.15509771  0.83178742     0.35550
H1900       H  0.49050656  0.18117799  0.80359565     0.40650
H1901       H  0.36660235  0.27006303  0.84937462     0.40270
H1902       H  0.38666012  0.26481675  0.88542369     0.35160
C1903       C  0.31951439  0.09576796  0.84790718    -0.26580
C1904       C  0.32001314  0.09241737  0.81362093    -0.14650
C1905       C  0.34122238  0.11277909  0.79563126     0.35980
C1906       C  0.35695347  0.13858304  0.81156767    -0.26020
C1907       C  0.35053780  0.14680968  0.84469446    -0.15260
C1908       C  0.33713257  0.12075158  0.86371190     0.37070
N1909       N  0.34576537  0.11538083  0.89749212    -0.89510
H1910       H  0.30733979  0.07751322  0.86266223     0.18180
H1911       H  0.37475541  0.15183765  0.79746411     0.18170
N1912       N  0.34615344  0.10802234  0.76099865    -0.88540
H1913       H  0.32486887  0.11789380  0.91224060     0.35550
H1914       H  0.36468155  0.13065599  0.90530950     0.40650
H1915       H  0.36078031  0.08741085  0.75821315     0.40270
H1916       H  0.35963118  0.12713464  0.75085533     0.35160
C1917       C  0.33461955  0.20551135  0.80097229    -0.26580
C1918       C  0.33078153  0.20532852  0.83540116    -0.14650
C1919       C  0.30686184  0.22790068  0.84770118     0.35980
C1920       C  0.28422012  0.24223485  0.82663102    -0.26020
C1921       C  0.28694194  0.24030951  0.79235230    -0.15260
C1922       C  0.31213209  0.21994108  0.77971551     0.37070
N1923       N  0.31567528  0.21461454  0.74501234    -0.89510
H1924       H  0.35639616  0.19631951  0.78960410     0.18180
H1925       H  0.26561129  0.25683007  0.83832766     0.18170
N1926       N  0.30764330  0.24085279  0.88034570    -0.88540
H1927       H  0.31368237  0.18978422  0.74063432     0.35550
H1928       H  0.33949003  0.22139768  0.73800801     0.40650
H1929       H  0.28396386  0.23881499  0.89028589     0.40270
H1930       H  0.31247842  0.26565788  0.87887733     0.35160
C1931       C  0.31124270  0.17845886  0.90193054    -0.26580
C1932       C  0.34422998  0.18645862  0.89360520    -0.14650
C1933       C  0.36401952  0.20002560  0.91897718     0.35980
C1934       C  0.34851674  0.21370087  0.94664617    -0.26020
C1935       C  0.31430896  0.21113003  0.95136142    -0.15260
C1936       C  0.29614354  0.19039371  0.93051415     0.37070
N1937       N  0.26150355  0.18493675  0.93574956    -0.89510
H1938       H  0.29578214  0.16664677  0.88384378     0.18180
H1939       H  0.36315729  0.22711470  0.96426288     0.18170
N1940       N  0.39936532  0.20038492  0.91673938    -0.88540
H1941       H  0.25234486  0.16809980  0.91889487     0.35550
H1942       H  0.24920814  0.20663330  0.93088250     0.40650
H1943       H  0.40732417  0.17635695  0.91672959     0.40270
H1944       H  0.40982553  0.21132140  0.93742000     0.35160
C1945       C  0.62292484  0.83422681  0.86452080    -0.26580
C1946       C  0.64565529  0.85175041  0.84494156    -0.14650
C1947       C  0.63638845  0.85680820  0.81122182     0.35980
C1948       C  0.60781870  0.84279086  0.79829717    -0.26020
C1949       C  0.58796448  0.82220970  0.81689244    -0.15260
C1950       C  0.59493423  0.81904820  0.85085848     0.37070
N1951       N  0.57480463  0.79974968  0.87208780    -0.89510
H1952       H  0.62846748  0.82837138  0.88966173     0.18180
H1953       H  0.60280688  0.84604740  0.77235622     0.18170
N1954       N  0.65792204  0.87305425  0.78860724    -0.88540
H1955       H  0.57610665  0.77564808  0.86456998     0.35550
H1956       H  0.55043720  0.80778534  0.87023454     0.40650
H1957       H  0.64482177  0.89196281  0.77763358     0.40270
H1958       H  0.66452467  0.85677055  0.77010504     0.35160
C1959       C  0.73094055  0.85012409  0.81446026    -0.26580
C1960       C  0.70195129  0.83789291  0.82867690    -0.14650
C1961       C  0.69319694  0.80546535  0.82000823     0.35980
C1962       C  0.71168133  0.78884073  0.79658512    -0.26020
C1963       C  0.74451995  0.79751435  0.78993741    -0.15260
C1964       C  0.75390513  0.82956906  0.79991048     0.37070
N1965       N  0.78710691  0.84133935  0.79759601    -0.89510
H1966       H  0.73871187  0.87464352  0.81771448     0.18180
H1967       H  0.70086392  0.76735254  0.78691192     0.18170
N1968       N  0.66648348  0.78863211  0.83575724    -0.88540
H1969       H  0.79540780  0.84727813  0.82115518     0.35550
H1970       H  0.78708895  0.86247873  0.78347479     0.40650
H1971       H  0.67323798  0.78472286  0.86019693     0.40270
H1972       H  0.66273587  0.76571401  0.82558923     0.35160
C1973       C  0.67252383  0.91742270  0.83908198    -0.26580
C1974       C  0.69247229  0.89440447  0.85543571    -0.14650
C1975       C  0.72416477  0.90602146  0.86563830     0.35980
C1976       C  0.73776775  0.93360462  0.85046989    -0.26020
C1977       C  0.72044583  0.95090524  0.82642164    -0.15260
C1978       C  0.68656033  0.94401027  0.82232570     0.37070
N1979       N  0.66651668  0.96342072  0.80087657    -0.89510
H1980       H  0.64641051  0.91324990  0.83621831     0.18180
H1981       H  0.76296114  0.94035832  0.85611599     0.18170
N1982       N  0.74380912  0.88875195  0.88911884    -0.88540
H1983       H  0.64172374  0.95670309  0.80274325     0.35550
H1984       H  0.67340166  0.95801141  0.77677771     0.40650
H1985       H  0.73285388  0.89220273  0.91205913     0.40270
H1986       H  0.76747815  0.89863193  0.89099097     0.35160
C1987       C  0.72246964  0.82301846  0.89168315    -0.26580
C1988       C  0.69332751  0.84212807  0.89019915    -0.14650
C1989       C  0.67931809  0.85049293  0.92125370     0.35980
C1990       C  0.69256862  0.83704834  0.95087268    -0.26020
C1991       C  0.72143850  0.81806645  0.95038908    -0.15260
C1992       C  0.73662178  0.81208595  0.92065226     0.37070
N1993       N  0.76755665  0.79534558  0.92006617    -0.89510
H1994       H  0.73735078  0.81921717  0.87061800     0.18180
H1995       H  0.68122921  0.84245481  0.97428625     0.18170
N1996       N  0.65252283  0.87313066  0.92288842    -0.88540
H1997       H  0.78438672  0.80882885  0.90623829     0.35550
H1998       H  0.76399564  0.77269767  0.90942266     0.40650
H1999       H  0.66141936  0.89560887  0.91524724     0.40270
H2000       H  0.64475366  0.87605770  0.94716811     0.35160
C2001       C  0.44222779  0.84569998  0.21505358    -0.26580
C2002       C  0.44408634  0.81199911  0.21828299    -0.14650
C2003       C  0.41887008  0.79319888  0.20418970     0.35980
C2004       C  0.39182801  0.80824449  0.18969913    -0.26020
C2005       C  0.38676769  0.84203003  0.18999048    -0.15260
C2006       C  0.41489614  0.86073753  0.19976592     0.37070
N2007       N  0.41719594  0.89455757  0.19251733    -0.89510
H2008       H  0.46255660  0.86049923  0.22363382     0.18180
H2009       H  0.37536466  0.79246702  0.17752536     0.18170
N2010       N  0.41917004  0.75852958  0.20502365    -0.88540
H2011       H  0.43758326  0.89814693  0.17725001     0.35550
H2012       H  0.42158009  0.90696461  0.21446110     0.40650
H2013       H  0.42136304  0.75088075  0.22940721     0.40270
H2014       H  0.43921863  0.75011930  0.19141908     0.35160
C2015       C  0.36446011  0.83555829  0.12199593    -0.26580
C2016       C  0.34288305  0.85201990  0.14348351    -0.14650
C2017       C  0.31016053  0.85767104  0.13191271     0.35980
C2018       C  0.29875799  0.84243286  0.10337486    -0.26020
C2019       C  0.31868459  0.82097041  0.08573947    -0.15260
C2020       C  0.35256550  0.81905374  0.09422650     0.37070
N2021       N  0.37545571  0.79996361  0.07582653    -0.89510
H2022       H  0.39025808  0.83274751  0.12806563     0.18180
H2023       H  0.27314219  0.84568165  0.09651859     0.18170
N2024       N  0.28738191  0.87692065  0.15028948    -0.88540
H2025       H  0.37429401  0.80702046  0.05120100     0.35550
H2026       H  0.36889888  0.77561942  0.07786121     0.40650
H2027       H  0.26698856  0.86254808  0.15619051     0.40270
H2028       H  0.27914214  0.89570052  0.13518413     0.35160
C2029       C  0.29954368  0.78678988  0.21824243    -0.26580
C2030       C  0.28331852  0.80263660  0.24437298    -0.14650
C2031       C  0.27726874  0.83592658  0.23780482     0.35980
C2032       C  0.29936391  0.85297474  0.21816890    -0.26020
C2033       C  0.32380011  0.83706866  0.19929183    -0.15260
C2034       C  0.31686556  0.80374843  0.19421202     0.37070
N2035       N  0.32054214  0.78878126  0.16262464    -0.89510
H2036       H  0.29485470  0.76145680  0.21349898     0.18180
H2037       H  0.29465592  0.87852822  0.21540933     0.18170
N2038       N  0.24647934  0.85117758  0.24563413    -0.88540
H2039       H  0.33044845  0.76563692  0.16577811     0.35550
H2040       H  0.29693593  0.78545793  0.15279729     0.40650
H2041       H  0.23439455  0.85661014  0.22361917     0.40270
H2042       H  0.25136302  0.87313821  0.25740732     0.35160
C2043       C  0.32759577  0.94725954  0.18991950    -0.26580
C2044       C  0.32580961  0.94915268  0.22435380    -0.14650
C2045       C  0.34102026  0.92455730  0.24308900     0.35980
C2046       C  0.35346250  0.89719296  0.22740778    -0.26020
C2047       C  0.34991061  0.89238197  0.19310533    -0.15260
C2048       C  0.34112879  0.91985949  0.17406180     0.37070
N2049       N  0.34567730  0.92006677  0.13911428    -0.89510
H2050       H  0.31810764  0.96710312  0.17534381     0.18180
H2051       H  0.36214773  0.87749868  0.24270924     0.18170
N2052       N  0.34159941  0.92507416  0.27826158    -0.88540
H2053       H  0.33807575  0.94211381  0.12909937     0.35550
H2054       H  0.37098918  0.91815750  0.13466575     0.40650
H2055       H  0.31740766  0.92690364  0.28692991     0.40270
H2056       H  0.35519516  0.94514135  0.28601393     0.35160
C2057       C  0.41453826  0.83865939  0.86313579    -0.26580
C2058       C  0.39153428  0.85454727  0.84251283    -0.14650
C2059       C  0.40155484  0.86007479  0.80920720     0.35980
C2060       C  0.43001069  0.84537426  0.79692752    -0.26020
C2061       C  0.44929348  0.82469112  0.81624503    -0.15260
C2062       C  0.44302739  0.82355918  0.85051533     0.37070
N2063       N  0.46462789  0.80745494  0.87329756    -0.89510
H2064       H  0.40984173  0.83621701  0.88913959     0.18180
H2065       H  0.43514618  0.84791199  0.77094380     0.18170
N2066       N  0.38028354  0.87627605  0.78628434    -0.88540
H2067       H  0.47152561  0.82437860  0.89109986     0.35550
H2068       H  0.48669449  0.80079948  0.86214098     0.40650
H2069       H  0.37421455  0.86023494  0.76737846     0.40270
H2070       H  0.39351613  0.89534543  0.77575653     0.35160
C2071       C  0.34789136  0.81422347  0.80907553    -0.26580
C2072       C  0.33250831  0.83794459  0.82905728    -0.14650
C2073       C  0.29734856  0.83670591  0.82878815     0.35980
C2074       C  0.28056213  0.81771510  0.80565320    -0.26020
C2075       C  0.29660228  0.79394912  0.78678120    -0.15260
C2076       C  0.33143513  0.79598785  0.78578988     0.37070
N2077       N  0.35101567  0.78185212  0.76027360    -0.89510
H2078       H  0.37358250  0.80817247  0.81119200     0.18180
H2079       H  0.25384654  0.81891774  0.80536487     0.18170
N2080       N  0.27795621  0.84995294  0.85464130    -0.88540
H2081       H  0.36897318  0.76705918  0.77099301     0.35550
H2082       H  0.36324414  0.80041154  0.74778244     0.40650
H2083       H  0.26604585  0.83100503  0.86685326     0.40270
H2084       H  0.25984556  0.86477792  0.84422408     0.35160
C2085       C  0.34758444  0.81070006  0.89100341    -0.26580
C2086       C  0.34784434  0.84483819  0.88808056    -0.14650
C2087       C  0.34010081  0.86266091  0.91696572     0.35980
C2088       C  0.32493846  0.84674976  0.94386643    -0.26020
C2089       C  0.32087670  0.81301268  0.94417360    -0.15260
C2090       C  0.33406424  0.79492483  0.91818636     0.37070
N2091       N  0.33231909  0.76033416  0.91843394    -0.89510
H2092       H  0.35646655  0.79576799  0.87111690     0.18180
H2093       H  0.31708600  0.86058894  0.96502883     0.18170
N2094       N  0.34870283  0.89625438  0.91963202    -0.88540
H2095       H  0.35630627  0.75130895  0.91639376     0.35550
H2096       H  0.31903762  0.75294496  0.89772129     0.40650
H2097       H  0.37439991  0.89788617  0.91836696     0.40270
H2098       H  0.34179051  0.90543952  0.94251713     0.35160
C2099       C  0.31304408  0.90741304  0.85916462    -0.26580
C2100       C  0.34452886  0.89661390  0.84961654    -0.14650
C2101       C  0.36475797  0.92141462  0.83568254     0.35980
C2102       C  0.34971879  0.94763334  0.81909103    -0.26020
C2103       C  0.31579031  0.95342795  0.82205596    -0.15260
C2104       C  0.29820544  0.93498430  0.84551121     0.37070
N2105       N  0.26554124  0.94406557  0.85576101    -0.89510
H2106       H  0.29994806  0.89502158  0.87829257     0.18180
H2107       H  0.36471516  0.96425846  0.80495830     0.18170
N2108       N  0.39998581  0.92106611  0.83957999    -0.88540
H2109       H  0.25727565  0.92919347  0.87482228     0.35550
H2110       H  0.24946054  0.94001198  0.83618292     0.40650
H2111       H  0.40500802  0.92273335  0.86470012     0.40270
H2112       H  0.41067730  0.94132014  0.82849041     0.35160
C2113       C  0.81046804  0.40413156  0.85901549    -0.26580
C2114       C  0.84277965  0.39472743  0.84980290    -0.14650
C2115       C  0.86237541  0.41958190  0.83530728     0.35980
C2116       C  0.84660195  0.44667847  0.82062736    -0.26020
C2117       C  0.81257319  0.45225520  0.82454128    -0.15260
C2118       C  0.79548835  0.43245988  0.84717718     0.37070
N2119       N  0.76243356  0.44013869  0.85726418    -0.89510
H2120       H  0.79510828  0.38811391  0.87308711     0.18180
H2121       H  0.86098089  0.46352241  0.80613914     0.18170
N2122       N  0.89764130  0.41688265  0.83405942    -0.88540
H2123       H  0.75469380  0.42484877  0.87620503     0.35550
H2124       H  0.74681252  0.43545873  0.83749812     0.40650
H2125       H  0.90628844  0.41716720  0.85824547     0.40270
H2126       H  0.90798158  0.43696054  0.82233500     0.35160
C2127       C  0.81109330  0.28348587  0.81075666    -0.26580
C2128       C  0.79165502  0.29701644  0.78583830    -0.14650
C2129       C  0.78812690  0.33122574  0.78737330     0.35980
C2130       C  0.80930887  0.34976518  0.80656611    -0.26020
C2131       C  0.83237294  0.33593739  0.82819834    -0.15260
C2132       C  0.83288750  0.30120039  0.82987710     0.37070
N2133       N  0.85251428  0.28235517  0.85240498    -0.89510
H2134       H  0.80751305  0.25856726  0.81785158     0.18180
H2135       H  0.80608562  0.37554065  0.80472993     0.18170
N2136       N  0.76038346  0.34765241  0.77386747    -0.88540
H2137       H  0.83648620  0.26946698  0.86770720     0.35550
H2138       H  0.86688041  0.29591406  0.86808451     0.40650
H2139       H  0.74690498  0.35767273  0.79321724     0.40270
H2140       H  0.76921405  0.36645744  0.75914733     0.35160
C2141       C  0.91239176  0.33442760  0.86193102    -0.26580
C2142       C  0.88900401  0.34964149  0.84094041    -0.14650
C2143       C  0.89832523  0.35132002  0.80667698     0.35980
C2144       C  0.92664188  0.33575332  0.79544363    -0.26020
C2145       C  0.94744680  0.31813298  0.81598924    -0.15260
C2146       C  0.94118873  0.31902180  0.85017059     0.37070
N2147       N  0.96301963  0.30455284  0.87385297    -0.89510
H2148       H  0.90765701  0.33146220  0.88764226     0.18180
H2149       H  0.93152469  0.33638798  0.76927200     0.18170
N2150       N  0.87937978  0.36685944  0.78128123    -0.88540
H2151       H  0.97015527  0.32270594  0.89025977     0.35550
H2152       H  0.98487368  0.29679900  0.86301393     0.40650
H2153       H  0.86016449  0.38084658  0.78972048     0.40270
H2154       H  0.86941963  0.34892084  0.76611573     0.35160
C2155       C  0.84697023  0.33602699  0.94718522    -0.26580
C2156       C  0.81826464  0.31672849  0.94714846    -0.14650
C2157       C  0.79870015  0.31565694  0.91903281     0.35980
C2158       C  0.80916760  0.33139942  0.89093652    -0.26020
C2159       C  0.84081414  0.34629369  0.88796689    -0.15260
C2160       C  0.85752450  0.35221976  0.91807876     0.37070
N2161       N  0.88417137  0.37509892  0.91934022    -0.89510
H2162       H  0.86038576  0.33929780  0.96995199     0.18180
H2163       H  0.79182929  0.33129501  0.87079438     0.18170
N2164       N  0.76784375  0.29834145  0.91914576    -0.88540
H2165       H  0.89359088  0.37665494  0.94319358     0.35550
H2166       H  0.87447971  0.39782945  0.91366782     0.40650
H2167       H  0.77339838  0.27377495  0.92133009     0.40270
H2168       H  0.75537825  0.30097622  0.89686992     0.35160
loop_ 
_geom_bond_atom_site_label_1 
_geom_bond_atom_site_label_2 
_geom_bond_distance 
_geom_bond_site_symmetry_2 
_ccdc_geom_bond_type 
C1         C2114   1.589       .  S
C1         C2131   1.566       .  S
C1         C2142   1.589       .  S
C1         C2159   1.590       .  S
C2         C2058   1.579       .  S
C2         C2072   1.594       .  S
C2         C2086   1.572       .  S
C2         C2100   1.593       .  S
C3         C2005   1.593       .  S
C3         C2016   1.561       .  S
C3         C2033   1.581       .  S
C3         C2047   1.571       .  S
C4         C1946   1.581       .  S
C4         C1960   1.573       .  S
C4         C1974   1.589       .  S
C4         C1988   1.591       .  S
C5         C1890   1.571       .  S
C5         C1907   1.601       .  S
C5         C1918   1.586       .  S
C5         C1932   1.566       .  S
C6         C1834   1.576       .  S
C6         C1848   1.567       .  S
C6         C1862   1.586       .  S
C6         C1876   1.577       .  S
C7         C1778   1.577       .  S
C7         C1792   1.589       .  S
C7         C1809   1.560       .  S
C7         C1820   1.590       .  S
C8         C1725   1.573       .  S
C8         C1736   1.564       .  S
C8         C1753   1.587       .  S
C8         C1767   1.600       .  S
C9         C1666   1.586       .  S
C9         C1680   1.564       .  S
C9         C1694   1.583       .  S
C9         C1708   1.576       .  S
C10        C1610   1.600       .  S
C10        C1627   1.586       .  S
C10        C1638   1.562       .  S
C10        C1652   1.592       .  S
C11        C1554   1.602       .  S
C11        C1568   1.579       .  S
C11        C1582   1.585       .  S
C11        C1596   1.575       .  S
C12        C1498   1.587       .  S
C12        C1512   1.577       .  S
C12        C1529   1.590       .  S
C12        C1540   1.573       .  S
C13        C1442   1.596       .  S
C13        C1456   1.600       .  S
C13        C1470   1.555       .  S
C13        C1487   1.607       .  S
C14        C1386   1.576       .  S
C14        C1400   1.586       .  S
C14        C1417   1.566       .  S
C14        C1428   1.585       .  S
C15        C1330   1.567       .  S
C15        C1344   1.588       .  S
C15        C1361   1.568       .  S
C15        C1375   1.567       .  S
C16        C1274   1.586       .  S
C16        C1288   1.586       .  S
C16        C1305   1.561       .  S
C16        C1316   1.592       .  S
O17          V25   1.906       .  S
O17          C27   1.265       .  A
O18          V25   1.905       .  S
O18          C28   1.268       .  A
O19          V25   1.904       .  S
O19          C29   1.264       .  A
O20          V25   1.895       .  S
O20          C30   1.264       .  A
O21          V26   1.910       .  S
O21          C30   1.266       .  A
O22          V26   1.907       .  S
O22          C29   1.268       .  A
O23          V26   1.902       .  S
O23          C28   1.263       .  A
O24          V26   1.899       .  S
O24          C27   1.266       .  A
V25          V26   2.083       .  T
C27        C1260   1.491       .  S
C28        C1389   1.490       .  S
C29        C1246   1.496       .  S
C30        C2002   1.485       .  S
O31          V39   1.922       .  S
O31          C41   1.269       .  A
O32          V39   1.919       .  S
O32          C42   1.269       .  A
O33          V39   1.908       .  S
O33          C43   1.267       .  A
O34          V39   1.908       .  S
O34          C44   1.265       .  A
O35          V40   1.902       .  S
O35          C44   1.267       .  A
O36          V40   1.906       .  S
O36          C43   1.266       .  A
O37          V40   1.890       .  S
O37          C42   1.263       .  A
O38          V40   1.893       .  S
O38          C41   1.262       .  A
V39          V40   2.083       .  T
C41        C1232   1.484       .  S
C42        C2061   1.494       .  S
C43        C1221   1.499       .  S
C44        C1949   1.494       .  S
O45          V53   1.908       .  S
O45          C55   1.264       .  A
O46          V53   1.909       .  S
O46          C56   1.265       .  A
O47          V53   1.921       .  S
O47          C57   1.270       .  A
O48          V53   1.925       .  S
O48          C58   1.272       .  A
O49          V54   1.888       .  S
O49          C58   1.261       .  A
O50          V54   1.882       .  S
O50          C57   1.259       .  A
O51          V54   1.904       .  S
O51          C56   1.268       .  A
O52          V54   1.907       .  S
O52          C55   1.267       .  A
V53          V54   2.084       .  T
C55        C1176   1.481       .  S
C56        C1193   1.497       .  S
C57        C1333   1.486       .  S
C58        C1204   1.493       .  S
C59        C1120   1.579       .  S
C59        C1137   1.580       .  S
C59        C1148   1.576       .  S
C59        C1162   1.563       .  S
C60        C1078   1.608       .  S
C60        C1095   1.573       .  S
C60        C1106   1.580       .  S
C60        C1207   1.567       .  S
O61          V69   1.899       .  S
O61          C71   1.266       .  A
O62          V69   1.903       .  S
O62          C72   1.262       .  A
O63          V69   1.911       .  S
O63          C73   1.269       .  A
O64          V69   1.908       .  S
O64          C74   1.266       .  A
O65          V70   1.903       .  S
O65          C74   1.267       .  A
O66          V70   1.909       .  S
O66          C73   1.265       .  A
O67          V70   1.899       .  S
O67          C72   1.266       .  A
O68          V70   1.906       .  S
O68          C71   1.265       .  A
V69          V70   2.085       .  T
C71        C1722   1.486       .  S
C72        C1064   1.475       .  S
C73        C1557   1.495       .  S
C74        C1092   1.491       .  S
C75        C1039   1.592       .  S
C75        C1050   1.554       .  S
C75        C1067   1.582       .  S
C75        C1249   1.595       .  S
C76        C1022   1.569       .  S
C76        C1053   1.572       .  S
C76        C1414   1.552       .  S
C76        C1585   1.577       .  S
O77          V85   1.903       .  S
O77          C87   1.265       .  A
O78          V85   1.905       .  S
O78          C88   1.265       .  A
O79          V85   1.912       .  S
O79          C89   1.267       .  A
O80          V85   1.910       .  S
O80          C90   1.266       .  A
O81          V86   1.886       .  S
O81          C90   1.264       .  A
O82          V86   1.897       .  S
O82          C89   1.262       .  A
O83          V86   1.906       .  S
O83          C88   1.268       .  A
O84          V86   1.906       .  S
O84          C87   1.267       .  A
V85          V86   2.083       .  T
C87         C994   1.495       .  S
C88        C1008   1.493       .  S
C89        C1669   1.474       .  S
C90        C1036   1.490       .  S
C91         C966   1.592       .  S
C91         C980   1.594       .  S
C91        C1011   1.561       .  S
C91        C1235   1.582       .  S
C92         C983   1.578       .  S
C92        C1683   1.556       .  S
C92        C1851   1.559       .  S
C92        C1963   1.574       .  S
O93         V101   1.894       .  S
O93         C103   1.262       .  A
O94         V101   1.900       .  S
O94         C104   1.264       .  A
O95         V101   1.905       .  S
O95         C105   1.265       .  A
O96         V101   1.906       .  S
O96         C106   1.267       .  A
O97         V102   1.910       .  S
O97         C106   1.264       .  A
O98         V102   1.903       .  S
O98         C105   1.266       .  A
O99         V102   1.930       .  S
O99         C104   1.272       .  A
O100        V102   1.921       .  S
O100        C103   1.270       .  A
V101        V102   2.083       .  T
C103        C969   1.494       .  S
C104       C2117   1.506       .  S
C105       C1837   1.493       .  S
C106        C955   1.484       .  S
C107        C924   1.570       .  S
C107        C938   1.571       .  S
C107        C952   1.599       .  S
C107       C1190   1.582       .  S
C108        C941   1.546       .  S
C108       C1358   1.591       .  S
C108       C1473   1.558       .  S
C108       C2128   1.569       .  S
O109        V117   1.915       .  S
O109        C119   1.268       .  A
O110        V117   1.919       .  S
O110        C120   1.269       .  A
O111        V117   1.899       .  S
O111        C121   1.263       .  A
O112        V117   1.899       .  S
O112        C122   1.266       .  A
O113        V118   1.918       .  S
O113        C122   1.266       .  A
O114        V118   1.905       .  S
O114        C121   1.268       .  A
O115        V118   1.888       .  S
O115        C120   1.263       .  A
O116        V118   1.886       .  S
O116        C119   1.262       .  A
V117        V118   2.085       .  T
C119        C927   1.485       .  S
C120       C1893   1.487       .  S
C121        C910   1.486       .  S
C122       C1445   1.486       .  S
C123        C854   1.575       .  S
C123        C868   1.602       .  S
C123        C885   1.593       .  S
C123        C896   1.581       .  S
C124        C812   1.582       .  S
C124        C826   1.575       .  S
C124        C840   1.558       .  S
C124        C913   1.572       .  S
O125        V133   1.905       .  S
O125        C135   1.265       .  A
O126        V133   1.897       .  S
O126        C136   1.262       .  A
O127        V133   1.894       .  S
O127        C137   1.264       .  A
O128        V133   1.887       .  S
O128        C138   1.262       .  A
O129        V134   1.908       .  S
O129        C138   1.264       .  A
O130        V134   1.907       .  S
O130        C137   1.264       .  A
O131        V134   1.902       .  S
O131        C136   1.265       .  A
O132        V134   1.912       .  S
O132        C135   1.268       .  A
V133        V134   2.087       .  T
C135       C1501   1.497       .  S
C136        C829   1.467       .  S
C137       C1781   1.475       .  S
C138        C798   1.464       .  S
C139        C770   1.580       .  S
C139        C784   1.556       .  S
C139        C801   1.579       .  S
C139       C1218   1.576       .  S
C140        C787   1.556       .  S
C140       C1302   1.552       .  S
C140       C1526   1.571       .  S
C140       C2075   1.565       .  S
O141        V149   1.902       .  S
O141        C151   1.264       .  A
O142        V149   1.896       .  S
O142        C152   1.263       .  A
O143        V149   1.902       .  S
O143        C153   1.268       .  A
O144        V149   1.901       .  S
O144        C154   1.266       .  A
O145        V150   1.912       .  S
O145        C154   1.267       .  A
O146        V150   1.920       .  S
O146        C153   1.267       .  A
O147        V150   1.918       .  S
O147        C152   1.268       .  A
O148        V150   1.913       .  S
O148        C151   1.270       .  A
V149        V150   2.082       .  T
C151       C1613   1.499       .  S
C152        C773   1.494       .  S
C153       C1277   1.499       .  S
C154        C759   1.492       .  S
C155        C700   1.580       .  S
C155        C714   1.594       .  S
C155        C731   1.591       .  S
C155        C742   1.572       .  S
C156        C672   1.587       .  S
C156        C689   1.576       .  S
C156        C756   1.583       .  S
C156       C1263   1.576       .  S
C157        C616   1.600       .  S
C157        C630   1.604       .  S
C157        C644   1.555       .  S
C157        C658   1.591       .  S
O158        V166   1.892       .  S
O158        C168   1.262       .  A
O159        V166   1.888       .  S
O159        C169   1.261       .  A
O160        V166   1.915       .  S
O160        C170   1.269       .  A
O161        V166   1.920       .  S
O161        C171   1.269       .  A
O162        V167   1.901       .  S
O162        C171   1.263       .  A
O163        V167   1.902       .  S
O163        C170   1.265       .  A
O164        V167   1.913       .  S
O164        C169   1.267       .  A
O165        V167   1.925       .  S
O165        C168   1.270       .  A
V166        V167   2.085       .  T
C168        C703   1.483       .  S
C169        C647   1.473       .  S
C170        C605   1.495       .  S
C171        C675   1.481       .  S
C172        C686   1.596       .  S
C172        C745   1.571       .  S
C172       C1641   1.543       .  S
C172       C2030   1.577       .  S
O173        V181   1.917   1_655  S
O173        C183   1.268       .  A
O174        V181   1.923       .  S
O174        C184   1.271       .  A
O175        V181   1.906       .  S
O175        C185   1.264       .  A
O176        V181   1.916   1_655  S
O176        C186   1.268       .  A
O177        V182   1.914   1_655  S
O177        C186   1.269       .  A
O178        V182   1.900       .  S
O178        C185   1.266       .  A
O179        V182   1.888       .  S
O179        C184   1.262       .  A
O180        V182   1.886   1_655  S
O180        C183   1.260       .  A
V181        V182   2.084       .  T
C183        C588   1.474       .  S
C184        C728   1.500       .  S
C185       C1624   1.477       .  S
C186       C1599   1.502       .  S
O187        V195   1.922       .  S
O187        C197   1.268       .  A
O188        V195   1.918   1_556  S
O188        C198   1.268       .  A
O189        V195   1.901   1_556  S
O189        C199   1.266       .  A
O190        V195   1.901       .  S
O190        C200   1.266       .  A
O191        V196   1.906       .  S
O191        C200   1.265       .  A
O192        V196   1.900   1_556  S
O192        C199   1.263       .  A
O193        V196   1.896   1_556  S
O193        C198   1.263       .  A
O194        V196   1.892       .  S
O194        C197   1.265       .  A
V195        V196   2.083       .  T
C197        C717   1.496       .  S
C198       C2089   1.486       .  S
C199       C1543   1.487       .  S
C200       C2019   1.493       .  S
C201        C843   1.587       .  S
C201        C899   1.577       .  S
C201       C1806   1.559       .  S
C201       C1921   1.560       .  S
O202        V210   1.913   1_565  S
O202        C212   1.269       .  A
O203        V210   1.916       .  S
O203        C213   1.268       .  A
O204        V210   1.879       .  S
O204        C214   1.260       .  A
O205        V210   1.886   1_565  S
O205        C215   1.260       .  A
O206        V211   1.928   1_565  S
O206        C215   1.272       .  A
O207        V211   1.923       .  S
O207        C214   1.270       .  A
O208        V211   1.894       .  S
O208        C213   1.263       .  A
O209        V211   1.902   1_565  S
O209        C212   1.262       .  A
V210        V211   2.083       .  T
C212       C1319   1.479       .  S
C213       C1904   1.491       .  S
C214        C882   1.495       .  S
C215       C2103   1.495       .  S
O216        V224   1.894   1_655  S
O216        C226   1.265       .  A
O217        V224   1.892       .  S
O217        C227   1.266       .  A
O218        V224   1.900       .  S
O218        C228   1.263       .  A
O219        V224   1.892   1_655  S
O219        C229   1.264       .  A
O220        V225   1.922   1_655  S
O220        C229   1.269       .  A
O221        V225   1.920       .  S
O221        C228   1.272       .  A
O222        V225   1.912       .  S
O222        C227   1.265       .  A
O223        V225   1.905   1_655  S
O223        C226   1.265       .  A
V224        V225   2.083       .  T
C226       C1372   1.487       .  S
C227       C1795   1.491       .  S
C228        C871   1.500       .  S
C229       C2145   1.497       .  S
O230        V238   1.900       .  S
O230        C240   1.266       .  A
O231        V238   1.900       .  S
O231        C241   1.263       .  A
O232        V238   1.911       .  S
O232        C242   1.267       .  A
O233        V238   1.901       .  S
O233        C243   1.266       .  A
O234        V239   1.908       .  S
O234        C243   1.266       .  A
O235        V239   1.912       .  S
O235        C242   1.268       .  A
O236        V239   1.905       .  S
O236        C241   1.265       .  A
O237        V239   1.913       .  S
O237        C240   1.267       .  A
V238        V239   2.083       .  T
C240        C633   1.495       .  S
C241        C857   1.471       .  S
C242        C815   1.504       .  S
C243        C577   1.493       .  S
C244        C560   1.563       .  S
C244       C1109   1.544       .  S
C244       C1165   1.547       .  S
C244       C1750   1.547       .  S
O245        V253   1.901   1_565  S
O245        C255   1.265       .  A
O246        V253   1.894       .  S
O246        C256   1.260       .  A
O247        V253   1.914       .  S
O247        C257   1.268       .  A
O248        V253   1.903   1_565  S
O248        C258   1.266       .  A
O249        V254   1.901   1_565  S
O249        C258   1.263       .  A
O250        V254   1.907       .  S
O250        C257   1.267       .  A
O251        V254   1.911       .  S
O251        C256   1.268       .  A
O252        V254   1.922   1_565  S
O252        C255   1.269       .  A
V253        V254   2.086       .  T
C255        C535   1.496       .  S
C256       C1134   1.471       .  S
C257        C546   1.502       .  S
C258       C1431   1.469       .  S
O259        V267   1.896       .  S
O259        C269   1.265       .  A
O260        V267   1.887   1_556  S
O260        C270   1.261       .  A
O261        V267   1.920   1_556  S
O261        C271   1.269       .  A
O262        V267   1.911       .  S
O262        C272   1.267       .  A
O263        V268   1.897       .  S
O263        C272   1.264       .  A
O264        V268   1.899   1_556  S
O264        C271   1.266       .  A
O265        V268   1.917   1_556  S
O265        C270   1.267       .  A
O266        V268   1.919       .  S
O266        C269   1.268       .  A
V267        V268   2.084       .  T
C269       C1151   1.498       .  S
C270       C2156   1.473       .  S
C271       C1484   1.501       .  S
C272       C1739   1.488       .  S
O273        V281   1.922       .  S
O273        C283   1.270       .  A
O274        V281   1.925       .  S
O274        C284   1.271       .  A
O275        V281   1.901       .  S
O275        C285   1.265       .  A
O276        V281   1.900       .  S
O276        C286   1.264       .  A
O277        V282   1.912       .  S
O277        C286   1.269       .  A
O278        V282   1.921       .  S
O278        C285   1.269       .  A
O279        V282   1.888       .  S
O279        C284   1.260       .  A
O280        V282   1.888       .  S
O280        C283   1.263       .  A
V281        V282   2.082       .  T
C283       C1123   1.493       .  S
C284        C619   1.497       .  S
C285       C1081   1.500       .  S
C286        C521   1.494       .  S
C287        C476   1.612       .  S
C287        C493   1.578       .  S
C287        C507   1.590       .  S
C287        C602   1.568       .  S
C288        C437   1.580       .  S
C288        C448   1.587       .  S
C288        C465   1.562       .  S
C288        C518   1.575       .  S
C289        C392   1.585       .  S
C289        C409   1.569       .  S
C289        C420   1.579       .  S
C289        C574   1.573       .  S
C290        C423   1.555       .  S
C290        C462   1.561       .  S
C290        C504   1.559       .  S
C290        C661   1.559       .  S
O291        V299   1.913   1_655  S
O291        C301   1.267       .  A
O292        V299   1.912       .  S
O292        C302   1.268       .  A
O293        V299   1.898       .  S
O293        C303   1.264       .  A
O294        V299   1.907   1_655  S
O294        C304   1.266       .  A
O295        V300   1.909   1_655  S
O295        C304   1.267       .  A
O296        V300   1.911       .  S
O296        C303   1.267       .  A
O297        V300   1.919       .  S
O297        C302   1.268       .  A
O298        V300   1.910   1_655  S
O298        C301   1.267       .  A
V299        V300   2.084       .  T
C301        C378   1.494       .  S
C302        C479   1.503       .  S
C303        C406   1.485       .  S
C304       C1764   1.493       .  S
O305        V313   1.920   1_565  S
O305        C315   1.268       .  A
O306        V313   1.928       .  S
O306        C316   1.272       .  A
O307        V313   1.900       .  S
O307        C317   1.264       .  A
O308        V313   1.899   1_565  S
O308        C318   1.263       .  A
O309        V314   1.915   1_565  S
O309        C318   1.268       .  A
O310        V314   1.918       .  S
O310        C317   1.268       .  A
O311        V314   1.897       .  S
O311        C316   1.263       .  A
O312        V314   1.881   1_565  S
O312        C315   1.263       .  A
V313        V314   2.083       .  T
C315       C1655   1.492       .  S
C316        C451   1.501       .  S
C317        C395   1.480       .  S
C318       C2044   1.489       .  S
O319        V327   1.910       .  S
O319        C329   1.269       .  A
O320        V327   1.908   1_556  S
O320        C330   1.268       .  A
O321        V327   1.911   1_556  S
O321        C331   1.265       .  A
O322        V327   1.904       .  S
O322        C332   1.263       .  A
O323        V328   1.898       .  S
O323        C332   1.264       .  A
O324        V328   1.897   1_556  S
O324        C331   1.267       .  A
O325        V328   1.897   1_556  S
O325        C330   1.263       .  A
O326        V328   1.905       .  S
O326        C329   1.264       .  A
V327        V328   2.085       .  T
C329        C490   1.495       .  S
C330       C1935   1.489       .  S
C331       C1823   1.495       .  S
C332        C434   1.471       .  S
O333        V341   1.925   1_655  S
O333        C343   1.271       .  A
O334        V341   1.913       .  S
O334        C344   1.267       .  A
O335        V341   1.890       .  S
O335        C345   1.262       .  A
O336        V341   1.880   1_655  S
O336        C346   1.259       .  A
O337        V342   1.917   1_655  S
O337        C346   1.268       .  A
O338        V342   1.930       .  S
O338        C345   1.272       .  A
O339        V342   1.886       .  S
O339        C344   1.261       .  A
O340        V342   1.890   1_655  S
O340        C343   1.261       .  A
V341        V342   2.086       .  T
C343       C1697   1.492       .  S
C344       C1515   1.470       .  S
C345       C1291   1.498       .  S
C346       C1879   1.468       .  S
O347        V355   1.905   1_565  S
O347        C357   1.265       .  A
O348        V355   1.911       .  S
O348        C358   1.268       .  A
O349        V355   1.905       .  S
O349        C359   1.267       .  A
O350        V355   1.912   1_565  S
O350        C360   1.267       .  A
O351        V356   1.903   1_565  S
O351        C360   1.266       .  A
O352        V356   1.906       .  S
O352        C359   1.263       .  A
O353        V356   1.917       .  S
O353        C358   1.269       .  A
O354        V356   1.903   1_565  S
O354        C357   1.266       .  A
V355        V356   2.083       .  T
C357       C1711   1.491       .  S
C358       C1459   1.508       .  S
C359       C1347   1.475       .  S
C360       C1977   1.497       .  S
O361        V369   1.894   1_556  S
O361        C371   1.262       .  A
O362        V369   1.887       .  S
O362        C372   1.261       .  A
O363        V369   1.908       .  S
O363        C373   1.268       .  A
O364        V369   1.910   1_556  S
O364        C374   1.268       .  A
O365        V370   1.909   1_556  S
O365        C374   1.264       .  A
O366        V370   1.909       .  S
O366        C373   1.265       .  A
O367        V370   1.918       .  S
O367        C372   1.270       .  A
O368        V370   1.931   1_556  S
O368        C371   1.273       .  A
V369        V370   2.083       .  T
C371       C1865   1.504       .  S
C372       C1403   1.490       .  S
C373       C1571   1.495       .  S
C374       C1991   1.481       .  S
C375        C381   1.578       .  S
C375        C549   1.586       .  S
C375        C563   1.576       .  S
C375       C1179   1.581       .  S
C376        C532   1.582       .  S
C376        C591   1.573       .  S
C376        C997   1.576       .  S
C376       C1025   1.556       .  S
C377        C378   1.400       .  A
C377        C382   1.406       .  A
C377        H384   1.084       .  S
C378        C379   1.414       .  A
C379        C380   1.416       .  A
C379        N386   1.438       .  S
C380        C381   1.415       .  A
C380        H385   1.080       .  S
C381        C382   1.428       .  A
C382        N383   1.433       .  S
N383        H387   1.046       .  S
N383        H388   1.045       .  S
N386        H389   1.045       .  S
N386        H390   1.045       .  S
C391        C392   1.406       .  A
C391        C396   1.383       .  A
C391        H398   1.049       .  S
C392        C393   1.430       .  A
C393        C394   1.434       .  A
C393        N400   1.438       .  S
C394        C395   1.413       .  A
C394        H399   1.083       .  S
C395        C396   1.383       .  A
C396        N397   1.434       .  S
N397        H401   1.045       .  S
N397        H402   1.043       .  S
N400        H403   1.043       .  S
N400        H404   1.045       .  S
C405        C406   1.399       .  A
C405        C410   1.401       .  A
C405        H412   1.084       .  S
C406        C407   1.416       .  A
C407        C408   1.407       .  A
C407        N414   1.437       .  S
C408        C409   1.415       .  A
C408        H413   1.081       .  S
C409        C410   1.426       .  A
C410        N411   1.431       .  S
N411        H415   1.046       .  S
N411        H416   1.045       .  S
N414        H417   1.043       .  S
N414        H418   1.046       .  S
C419        C420   1.413       .  A
C419        C424   1.402       .  A
C419        H426   1.080       .  S
C420        C421   1.425       .  A
C421        C422   1.394       .  A
C421        N428   1.431       .  S
C422        C423   1.406       .  A
C422        H427   1.083       .  S
C423        C424   1.423       .  A
C424        N425   1.432       .  S
N425        H429   1.046       .  S
N425        H430   1.046       .  S
N428        H431   1.046       .  S
N428        H432   1.046       .  S
C433        C434   1.410       .  A
C433        C438   1.423       .  A
C433        H440   1.083       .  S
C434        C435   1.402       .  A
C435        C436   1.382       .  A
C435        N442   1.443       .  S
C436        C437   1.427       .  A
C436        H441   1.079       .  S
C437        C438   1.420       .  A
C438        N439   1.436       .  S
N439        H443   1.046       .  S
N439        H444   1.044       .  S
N442        H445   1.039       .  S
N442        H446   1.046       .  S
C447        C448   1.419       .  A
C447        C452   1.408       .  A
C447        H454   1.078       .  S
C448        C449   1.428       .  A
C449        C450   1.418       .  A
C449        N456   1.437       .  S
C450        C451   1.405       .  A
C450        H455   1.083       .  S
C451        C452   1.415       .  A
C452        N453   1.439       .  S
N453        H457   1.046       .  S
N453        H458   1.043       .  S
N456        H459   1.045       .  S
N456        H460   1.045       .  S
C461        C462   1.413       .  A
C461        C466   1.396       .  A
C461        H468   1.084       .  S
C462        C463   1.421       .  A
C463        C464   1.381       .  A
C463        N470   1.406       .  S
C464        C465   1.393       .  A
C464        H469   1.079       .  S
C465        C466   1.426       .  A
C466        N467   1.431       .  S
N467        H471   1.046       .  S
N467        H472   1.046       .  S
N470        H473   1.042       .  S
N470        H474   1.040       .  S
C475        C476   1.420       .  A
C475        C480   1.410       .  A
C475        H482   1.068       .  S
C476        C477   1.439       .  A
C477        C478   1.415       .  A
C477        N484   1.435       .  S
C478        C479   1.404       .  A
C478        H483   1.084       .  S
C479        C480   1.408       .  A
C480        N481   1.438       .  S
N481        H485   1.046       .  S
N481        H486   1.045       .  S
N484        H487   1.044       .  S
N484        H488   1.044       .  S
C489        C490   1.395       .  A
C489        C494   1.400       .  A
C489        H496   1.084       .  S
C490        C491   1.421       .  A
C491        C492   1.414       .  A
C491        N498   1.439       .  S
C492        C493   1.416       .  A
C492        H497   1.081       .  S
C493        C494   1.428       .  A
C494        N495   1.427       .  S
N495        H499   1.046       .  S
N495        H500   1.046       .  S
N498        H501   1.042       .  S
N498        H502   1.046       .  S
C503        C504   1.402       .  A
C503        C508   1.395       .  A
C503        H510   1.074       .  S
C504        C505   1.417       .  A
C505        C506   1.400       .  A
C505        N512   1.431       .  S
C506        C507   1.411       .  A
C506        H511   1.071       .  S
C507        C508   1.440       .  A
C508        N509   1.435       .  S
N509        H513   1.046       .  S
N509        H514   1.046       .  S
N512        H515   1.045       .  S
N512        H516   1.046       .  S
C517        C518   1.424       .  A
C517        C522   1.402       .  A
C517        H524   1.083       .  S
C518        C519   1.426       .  A
C519        C520   1.412       .  A
C519        N526   1.428       .  S
C520        C521   1.406       .  A
C520        H525   1.084       .  S
C521        C522   1.406       .  A
C522        N523   1.438       .  S
N523        H527   1.046       .  S
N523        H528   1.045       .  S
N526        H529   1.046       .  S
N526        H530   1.045       .  S
C531        C532   1.418       .  A
C531        C536   1.416       .  A
C531        H538   1.081       .  S
C532        C533   1.431       .  A
C533        C534   1.401       .  A
C533        N540   1.429       .  S
C534        C535   1.396       .  A
C534        H539   1.085       .  S
C535        C536   1.419       .  A
C536        N537   1.437       .  S
N537        H541   1.046       .  S
N537        H542   1.043       .  S
N540        H543   1.046       .  S
N540        H544   1.046       .  S
C545        C546   1.403       .  A
C545        C550   1.409       .  A
C545        H552   1.084       .  S
C546        C547   1.412       .  A
C547        C548   1.401       .  A
C547        N554   1.432       .  S
C548        C549   1.424       .  A
C548        H553   1.083       .  S
C549        C550   1.439       .  A
C550        N551   1.429       .  S
N551        H555   1.042       .  S
N551        H556   1.040       .  S
N554        H557   1.045       .  S
N554        H558   1.045       .  S
C559        C560   1.413       .  A
C559        C564   1.402       .  A
C559        H566   1.083       .  S
C560        C561   1.426       .  A
C561        C562   1.398       .  A
C561        N568   1.439       .  S
C562        C563   1.412       .  A
C562        H567   1.079       .  S
C563        C564   1.421       .  A
C564        N565   1.433       .  S
N565        H569   1.046       .  S
N565        H570   1.040       .  S
N568        H571   1.043       .  S
N568        H572   1.046       .  S
C573        C574   1.422       .  A
C573        C578   1.402       .  A
C573        H580   1.082       .  S
C574        C575   1.426       .  A
C575        C576   1.412       .  A
C575        N582   1.430       .  S
C576        C577   1.406       .  A
C576        H581   1.084       .  S
C577        C578   1.408       .  A
C578        N579   1.439       .  S
N579        H583   1.046       .  S
N579        H584   1.046       .  S
N582        H585   1.046       .  S
N582        H586   1.045       .  S
C587        C588   1.406       .  A
C587        C592   1.423       .  A
C587        H594   1.083       .  S
C588        C589   1.395       .  A
C589        C590   1.381       .  A
C589        N596   1.430       .  S
C590        C591   1.420       .  A
C590        H595   1.079       .  S
C591        C592   1.426       .  A
C592        N593   1.436       .  S
N593        H597   1.045       .  S
N593        H598   1.044       .  S
N596        H599   1.044       .  S
N596        H600   1.045       .  S
C601        C602   1.415       .  A
C601        C606   1.413       .  A
C601        H608   1.080       .  S
C602        C603   1.428       .  A
C603        C604   1.406       .  A
C603        N610   1.435       .  S
C604        C605   1.404       .  A
C604        H609   1.084       .  S
C605        C606   1.414       .  A
C606        N607   1.437       .  S
N607        H611   1.046       .  S
N607        H612   1.045       .  S
N610        H613   1.045       .  S
N610        H614   1.046       .  S
C615        C616   1.422       .  A
C615        C620   1.397       .  A
C615        H622   1.082       .  S
C616        C617   1.434       .  A
C617        C618   1.413       .  A
C617        N624   1.431       .  S
C618        C619   1.401       .  A
C618        H623   1.084       .  S
C619        C620   1.416       .  A
C620        N621   1.433       .  S
N621        H625   1.045       .  S
N621        H626   1.045       .  S
N624        H627   1.046       .  S
N624        H628   1.045       .  S
C629        C630   1.416       .  A
C629        C634   1.415       .  A
C629        H636   1.078       .  S
C630        C631   1.436       .  A
C631        C632   1.399       .  A
C631        N638   1.437       .  S
C632        C633   1.399       .  A
C632        H637   1.084       .  S
C633        C634   1.413       .  A
C634        N635   1.437       .  S
N635        H639   1.046       .  S
N635        H640   1.045       .  S
N638        H641   1.044       .  S
N638        H642   1.037       .  S
C643        C644   1.410       .  A
C643        C648   1.413       .  A
C643        H650   1.081       .  S
C644        C645   1.426       .  A
C645        C646   1.397       .  A
C645        N652   1.433       .  S
C646        C647   1.396       .  A
C646        H651   1.085       .  S
C647        C648   1.408       .  A
C648        N649   1.436       .  S
N649        H653   1.046       .  S
N649        H654   1.045       .  S
N652        H655   1.044       .  S
N652        H656   1.045       .  S
C657        C658   1.420       .  A
C657        C662   1.387       .  A
C657        H664   1.067       .  S
C658        C659   1.431       .  A
C659        C660   1.399       .  A
C659        N666   1.423       .  S
C660        C661   1.402       .  A
C660        H665   1.084       .  S
C661        C662   1.414       .  A
C662        N663   1.435       .  S
N663        H667   1.046       .  S
N663        H668   1.046       .  S
N666        H669   1.046       .  S
N666        H670   1.046       .  S
C671        C672   1.425       .  A
C671        C676   1.428       .  A
C671        H678   1.083       .  S
C672        C673   1.431       .  A
C673        C674   1.388       .  A
C673        N680   1.419       .  S
C674        C675   1.375       .  A
C674        H679   1.078       .  S
C675        C676   1.410       .  A
C676        N677   1.435       .  S
N677        H681   1.046       .  S
N677        H682   1.045       .  S
N680        H683   1.043       .  S
N680        H684   1.041       .  S
C685        C686   1.417       .  A
C685        C690   1.407       .  A
C685        H692   1.059       .  S
C686        C687   1.442       .  A
C687        C688   1.397       .  A
C687        N694   1.432       .  S
C688        C689   1.404       .  A
C688        H693   1.076       .  S
C689        C690   1.425       .  A
C690        N691   1.441       .  S
N691        H695   1.045       .  S
N691        H696   1.042       .  S
N694        H697   1.046       .  S
N694        H698   1.046       .  S
C699        C700   1.417       .  A
C699        C704   1.419       .  A
C699        H706   1.083       .  S
C700        C701   1.436       .  A
C701        C702   1.390       .  A
C701        N708   1.436       .  S
C702        C703   1.389       .  A
C702        H707   1.080       .  S
C703        C704   1.418       .  A
C704        N705   1.437       .  S
N705        H709   1.046       .  S
N705        H710   1.044       .  S
N708        H711   1.037       .  S
N708        H712   1.045       .  S
C713        C714   1.415       .  A
C713        C718   1.396       .  A
C713        H720   1.056       .  S
C714        C715   1.427       .  A
C715        C716   1.427       .  A
C715        N722   1.436       .  S
C716        C717   1.412       .  A
C716        H721   1.083       .  S
C717        C718   1.407       .  A
C718        N719   1.441       .  S
N719        H723   1.046       .  S
N719        H724   1.046       .  S
N722        H725   1.045       .  S
N722        H726   1.046       .  S
C727        C728   1.400       .  A
C727        C732   1.415       .  A
C727        H734   1.084       .  S
C728        C729   1.410       .  A
C729        C730   1.402       .  A
C729        N736   1.440       .  S
C730        C731   1.416       .  A
C730        H735   1.065       .  S
C731        C732   1.442       .  A
C732        N733   1.430       .  S
N733        H737   1.046       .  S
N733        H738   1.046       .  S
N736        H739   1.046       .  S
N736        H740   1.046       .  S
C741        C742   1.422       .  A
C741        C746   1.406       .  A
C741        H748   1.076       .  S
C742        C743   1.430       .  A
C743        C744   1.389       .  A
C743        N750   1.431       .  S
C744        C745   1.414       .  A
C744        H749   1.081       .  S
C745        C746   1.418       .  A
C746        N747   1.440       .  S
N747        H751   1.045       .  S
N747        H752   1.039       .  S
N750        H753   1.035       .  S
N750        H754   1.039       .  S
C755        C756   1.418       .  A
C755        C760   1.414       .  A
C755        H762   1.079       .  S
C756        C757   1.437       .  A
C757        C758   1.398       .  A
C757        N764   1.428       .  S
C758        C759   1.397       .  A
C758        H763   1.084       .  S
C759        C760   1.411       .  A
C760        N761   1.437       .  S
N761        H765   1.046       .  S
N761        H766   1.046       .  S
N764        H767   1.043       .  S
N764        H768   1.039       .  S
C769        C770   1.416       .  A
C769        C774   1.395       .  A
C769        H776   1.071       .  S
C770        C771   1.429       .  A
C771        C772   1.415       .  A
C771        N778   1.436       .  S
C772        C773   1.408       .  A
C772        H777   1.084       .  S
C773        C774   1.413       .  A
C774        N775   1.433       .  S
N775        H779   1.045       .  S
N775        H780   1.045       .  S
N778        H781   1.043       .  S
N778        H782   1.045       .  S
C783        C784   1.416       .  A
C783        C788   1.394       .  A
C783        H790   1.080       .  S
C784        C785   1.411       .  A
C785        C786   1.386       .  A
C785        N792   1.431       .  S
C786        C787   1.413       .  A
C786        H791   1.073       .  S
C787        C788   1.431       .  A
C788        N789   1.440       .  S
N789        H793   1.046       .  S
N789        H794   1.039       .  S
N792        H795   1.046       .  S
N792        H796   1.046       .  S
C797        C798   1.373       .  A
C797        C802   1.377       .  A
C797        H804   1.088       .  S
C798        C799   1.416       .  A
C799        C800   1.421       .  A
C799        N806   1.436       .  S
C800        C801   1.418       .  A
C800        H805   1.083       .  S
C801        C802   1.438       .  A
C802        N803   1.426       .  S
N803        H807   1.044       .  S
N803        H808   1.046       .  S
N806        H809   1.045       .  S
N806        H810   1.046       .  S
C811        C812   1.420       .  A
C811        C816   1.415       .  A
C811        H818   1.076       .  S
C812        C813   1.430       .  A
C813        C814   1.407       .  A
C813        N820   1.432       .  S
C814        C815   1.402       .  A
C814        H819   1.084       .  S
C815        C816   1.415       .  A
C816        N817   1.438       .  S
N817        H821   1.046       .  S
N817        H822   1.045       .  S
N820        H823   1.046       .  S
N820        H824   1.046       .  S
C825        C826   1.424       .  A
C825        C830   1.385       .  A
C825        H832   1.078       .  S
C826        C827   1.422       .  A
C827        C828   1.416       .  A
C827        N834   1.432       .  S
C828        C829   1.405       .  A
C828        H833   1.083       .  S
C829        C830   1.392       .  A
C830        N831   1.434       .  S
N831        H835   1.045       .  S
N831        H836   1.045       .  S
N834        H837   1.045       .  S
N834        H838   1.046       .  S
C839        C840   1.409       .  A
C839        C844   1.398       .  A
C839        H846   1.083       .  S
C840        C841   1.407       .  A
C841        C842   1.389       .  A
C841        N848   1.433       .  S
C842        C843   1.422       .  A
C842        H847   1.075       .  S
C843        C844   1.426       .  A
C844        N845   1.423       .  S
N845        H849   1.047       .  S
N845        H850   1.046       .  S
N848        H851   1.045       .  S
N848        H852   1.046       .  S
C853        C854   1.426       .  A
C853        C858   1.383       .  A
C853        H860   1.075       .  S
C854        C855   1.424       .  A
C855        C856   1.419       .  A
C855        N862   1.432       .  S
C856        C857   1.406       .  A
C856        H861   1.083       .  S
C857        C858   1.397       .  A
C858        N859   1.435       .  S
N859        H863   1.046       .  S
N859        H864   1.044       .  S
N862        H865   1.045       .  S
N862        H866   1.045       .  S
C867        C868   1.418       .  A
C867        C872   1.409       .  A
C867        H874   1.075       .  S
C868        C869   1.432       .  A
C869        C870   1.417       .  A
C869        N876   1.432       .  S
C870        C871   1.408       .  A
C870        H875   1.083       .  S
C871        C872   1.407       .  A
C872        N873   1.437       .  S
N873        H877   1.046       .  S
N873        H878   1.045       .  S
N876        H879   1.045       .  S
N876        H880   1.045       .  S
C881        C882   1.403       .  A
C881        C886   1.417       .  A
C881        H888   1.084       .  S
C882        C883   1.410       .  A
C883        C884   1.394       .  A
C883        N890   1.441       .  S
C884        C885   1.424       .  A
C884        H889   1.081       .  S
C885        C886   1.436       .  A
C886        N887   1.428       .  S
N887        H891   1.046       .  S
N887        H892   1.046       .  S
N890        H893   1.045       .  S
N890        H894   1.046       .  S
C895        C896   1.424       .  A
C895        C900   1.387       .  A
C895        H902   1.076       .  S
C896        C897   1.420       .  A
C897        C898   1.389       .  A
C897        N904   1.421       .  S
C898        C899   1.411       .  A
C898        H903   1.071       .  S
C899        C900   1.422       .  A
C900        N901   1.438       .  S
N901        H905   1.046       .  S
N901        H906   1.046       .  S
N904        H907   1.046       .  S
N904        H908   1.046       .  S
C909        C910   1.390       .  A
C909        C914   1.396       .  A
C909        H916   1.084       .  S
C910        C911   1.420       .  A
C911        C912   1.412       .  A
C911        N918   1.438       .  S
C912        C913   1.412       .  A
C912        H917   1.080       .  S
C913        C914   1.436       .  A
C914        N915   1.428       .  S
N915        H919   1.046       .  S
N915        H920   1.046       .  S
N918        H921   1.043       .  S
N918        H922   1.046       .  S
C923        C924   1.418       .  A
C923        C928   1.397       .  A
C923        H930   1.070       .  S
C924        C925   1.425       .  A
C925        C926   1.419       .  A
C925        N932   1.436       .  S
C926        C927   1.408       .  A
C926        H931   1.083       .  S
C927        C928   1.408       .  A
C928        N929   1.440       .  S
N929        H933   1.046       .  S
N929        H934   1.046       .  S
N932        H935   1.043       .  S
N932        H936   1.046       .  S
C937        C938   1.423       .  A
C937        C942   1.392       .  A
C937        H944   1.081       .  S
C938        C939   1.434       .  A
C939        C940   1.383       .  A
C939        N946   1.437       .  S
C940        C941   1.404       .  A
C940        H945   1.070       .  S
C941        C942   1.415       .  A
C942        N943   1.436       .  S
N943        H947   1.045       .  S
N943        H948   1.046       .  S
N946        H949   1.045       .  S
N946        H950   1.027       .  S
C951        C952   1.424       .  A
C951        C956   1.384       .  A
C951        H958   1.076       .  S
C952        C953   1.437       .  A
C953        C954   1.424       .  A
C953        N960   1.435       .  S
C954        C955   1.407       .  A
C954        H959   1.083       .  S
C955        C956   1.393       .  A
C956        N957   1.432       .  S
N957        H961   1.044       .  S
N957        H962   1.045       .  S
N960        H963   1.037       .  S
N960        H964   1.046       .  S
C965        C966   1.410       .  A
C965        C970   1.406       .  A
C965        H972   1.082       .  S
C966        C967   1.432       .  A
C967        C968   1.409       .  A
C967        N974   1.437       .  S
C968        C969   1.403       .  A
C968        H973   1.084       .  S
C969        C970   1.415       .  A
C970        N971   1.437       .  S
N971        H975   1.046       .  S
N971        H976   1.044       .  S
N974        H977   1.043       .  S
N974        H978   1.044       .  S
C979        C980   1.414       .  A
C979        C984   1.395       .  A
C979        H986   1.060       .  S
C980        C981   1.444       .  A
C981        C982   1.394       .  A
C981        N988   1.443       .  S
C982        C983   1.405       .  A
C982        H987   1.072       .  S
C983        C984   1.423       .  A
C984        N985   1.437       .  S
N985        H989   1.046       .  S
N985        H990   1.046       .  S
N988        H991   1.042       .  S
N988        H992   1.044       .  S
C993        C994   1.400       .  A
C993        C998   1.407       .  A
C993       H1000   1.084       .  S
C994        C995   1.410       .  A
C995        C996   1.406       .  A
C995       N1002   1.439       .  S
C996        C997   1.420       .  A
C996       H1001   1.078       .  S
C997        C998   1.433       .  A
C998        N999   1.430       .  S
N999       H1003   1.046       .  S
N999       H1004   1.046       .  S
N1002      H1005   1.046       .  S
N1002      H1006   1.046       .  S
C1007      C1008   1.401       .  A
C1007      C1012   1.402       .  A
C1007      H1014   1.084       .  S
C1008      C1009   1.419       .  A
C1009      C1010   1.407       .  A
C1009      N1016   1.432       .  S
C1010      C1011   1.414       .  A
C1010      H1015   1.081       .  S
C1011      C1012   1.431       .  A
C1012      N1013   1.435       .  S
N1013      H1017   1.045       .  S
N1013      H1018   1.046       .  S
N1016      H1019   1.046       .  S
N1016      H1020   1.044       .  S
C1021      C1022   1.412       .  A
C1021      C1026   1.392       .  A
C1021      H1028   1.066       .  S
C1022      C1023   1.422       .  A
C1023      C1024   1.396       .  A
C1023      N1030   1.435       .  S
C1024      C1025   1.415       .  A
C1024      H1029   1.078       .  S
C1025      C1026   1.410       .  A
C1026      N1027   1.434       .  S
N1027      H1031   1.046       .  S
N1027      H1032   1.044       .  S
N1030      H1033   1.046       .  S
N1030      H1034   1.046       .  S
C1035      C1036   1.399       .  A
C1035      C1040   1.397       .  A
C1035      H1042   1.083       .  S
C1036      C1037   1.421       .  A
C1037      C1038   1.413       .  A
C1037      N1044   1.439       .  S
C1038      C1039   1.418       .  A
C1038      H1043   1.078       .  S
C1039      C1040   1.428       .  A
C1040      N1041   1.437       .  S
N1041      H1045   1.046       .  S
N1041      H1046   1.045       .  S
N1044      H1047   1.041       .  S
N1044      H1048   1.046       .  S
C1049      C1050   1.413       .  A
C1049      C1054   1.390       .  A
C1049      H1056   1.081       .  S
C1050      C1051   1.408       .  A
C1051      C1052   1.392       .  A
C1051      N1058   1.428       .  S
C1052      C1053   1.429       .  A
C1052      H1057   1.078       .  S
C1053      C1054   1.418       .  A
C1054      N1055   1.430       .  S
N1055      H1059   1.046       .  S
N1055      H1060   1.046       .  S
N1058      H1061   1.046       .  S
N1058      H1062   1.046       .  S
C1063      C1064   1.385       .  A
C1063      C1068   1.387       .  A
C1063      H1070   1.085       .  S
C1064      C1065   1.414       .  A
C1065      C1066   1.421       .  A
C1065      N1072   1.436       .  S
C1066      C1067   1.410       .  A
C1066      H1071   1.083       .  S
C1067      C1068   1.446       .  A
C1068      N1069   1.439       .  S
N1069      H1073   1.046       .  S
N1069      H1074   1.045       .  S
N1072      H1075   1.045       .  S
N1072      H1076   1.046       .  S
C1077      C1078   1.418       .  A
C1077      C1082   1.406       .  A
C1077      H1084   1.068       .  S
C1078      C1079   1.433       .  A
C1079      C1080   1.420       .  A
C1079      N1086   1.437       .  S
C1080      C1081   1.404       .  A
C1080      H1085   1.083       .  S
C1081      C1082   1.409       .  A
C1082      N1083   1.439       .  S
N1083      H1087   1.046       .  S
N1083      H1088   1.045       .  S
N1086      H1089   1.045       .  S
N1086      H1090   1.046       .  S
C1091      C1092   1.395       .  A
C1091      C1096   1.398       .  A
C1091      H1098   1.084       .  S
C1092      C1093   1.421       .  A
C1093      C1094   1.412       .  A
C1093      N1100   1.439       .  S
C1094      C1095   1.415       .  A
C1094      H1099   1.081       .  S
C1095      C1096   1.427       .  A
C1096      N1097   1.429       .  S
N1097      H1101   1.046       .  S
N1097      H1102   1.046       .  S
N1100      H1103   1.042       .  S
N1100      H1104   1.046       .  S
C1105      C1106   1.405       .  A
C1105      C1110   1.388       .  A
C1105      H1112   1.073       .  S
C1106      C1107   1.433       .  A
C1107      C1108   1.397       .  A
C1107      N1114   1.429       .  S
C1108      C1109   1.400       .  A
C1108      H1113   1.079       .  S
C1109      C1110   1.420       .  A
C1110      N1111   1.433       .  S
N1111      H1115   1.046       .  S
N1111      H1116   1.046       .  S
N1114      H1117   1.037       .  S
N1114      H1118   1.046       .  S
C1119      C1120   1.416       .  A
C1119      C1124   1.412       .  A
C1119      H1126   1.081       .  S
C1120      C1121   1.438       .  A
C1121      C1122   1.393       .  A
C1121      N1128   1.431       .  S
C1122      C1123   1.398       .  A
C1122      H1127   1.084       .  S
C1123      C1124   1.417       .  A
C1124      N1125   1.436       .  S
N1125      H1129   1.045       .  S
N1125      H1130   1.043       .  S
N1128      H1131   1.043       .  S
N1128      H1132   1.041       .  S
C1133      C1134   1.408       .  A
C1133      C1138   1.426       .  A
C1133      H1140   1.083       .  S
C1134      C1135   1.397       .  A
C1135      C1136   1.376       .  A
C1135      N1142   1.438       .  S
C1136      C1137   1.422       .  A
C1136      H1141   1.073       .  S
C1137      C1138   1.428       .  A
C1138      N1139   1.439       .  S
N1139      H1143   1.045       .  S
N1139      H1144   1.042       .  S
N1142      H1145   1.035       .  S
N1142      H1146   1.043       .  S
C1147      C1148   1.420       .  A
C1147      C1152   1.419       .  A
C1147      H1154   1.079       .  S
C1148      C1149   1.432       .  A
C1149      C1150   1.398       .  A
C1149      N1156   1.435       .  S
C1150      C1151   1.399       .  A
C1150      H1155   1.084       .  S
C1151      C1152   1.415       .  A
C1152      N1153   1.437       .  S
N1153      H1157   1.046       .  S
N1153      H1158   1.045       .  S
N1156      H1159   1.046       .  S
N1156      H1160   1.046       .  S
C1161      C1162   1.408       .  A
C1161      C1166   1.393       .  A
C1161      H1168   1.076       .  S
C1162      C1163   1.425       .  A
C1163      C1164   1.382       .  A
C1163      N1170   1.432       .  S
C1164      C1165   1.403       .  A
C1164      H1169   1.079       .  S
C1165      C1166   1.424       .  A
C1166      N1167   1.433       .  S
N1167      H1171   1.046       .  S
N1167      H1172   1.046       .  S
N1170      H1173   1.046       .  S
N1170      H1174   1.046       .  S
C1175      C1176   1.406       .  A
C1175      C1180   1.423       .  A
C1175      H1182   1.083       .  S
C1176      C1177   1.395       .  A
C1177      C1178   1.384       .  A
C1177      N1184   1.430       .  S
C1178      C1179   1.417       .  A
C1178      H1183   1.070       .  S
C1179      C1180   1.430       .  A
C1180      N1181   1.433       .  S
N1181      H1185   1.046       .  S
N1181      H1186   1.045       .  S
N1184      H1187   1.042       .  S
N1184      H1188   1.045       .  S
C1189      C1190   1.421       .  A
C1189      C1194   1.418       .  A
C1189      H1196   1.077       .  S
C1190      C1191   1.434       .  A
C1191      C1192   1.398       .  A
C1191      N1198   1.427       .  S
C1192      C1193   1.392       .  A
C1192      H1197   1.084       .  S
C1193      C1194   1.414       .  A
C1194      N1195   1.437       .  S
N1195      H1199   1.046       .  S
N1195      H1200   1.046       .  S
N1198      H1201   1.046       .  S
N1198      H1202   1.046       .  S
C1203      C1204   1.403       .  A
C1203      C1208   1.400       .  A
C1203      H1210   1.084       .  S
C1204      C1205   1.418       .  A
C1205      C1206   1.411       .  A
C1205      N1212   1.438       .  S
C1206      C1207   1.417       .  A
C1206      H1211   1.081       .  S
C1207      C1208   1.428       .  A
C1208      N1209   1.435       .  S
N1209      H1213   1.046       .  S
N1209      H1214   1.046       .  S
N1212      H1215   1.042       .  S
N1212      H1216   1.046       .  S
C1217      C1218   1.421       .  A
C1217      C1222   1.406       .  A
C1217      H1224   1.080       .  S
C1218      C1219   1.431       .  A
C1219      C1220   1.411       .  A
C1219      N1226   1.429       .  S
C1220      C1221   1.403       .  A
C1220      H1225   1.084       .  S
C1221      C1222   1.410       .  A
C1222      N1223   1.438       .  S
N1223      H1227   1.046       .  S
N1223      H1228   1.046       .  S
N1226      H1229   1.046       .  S
N1226      H1230   1.046       .  S
C1231      C1232   1.406       .  A
C1231      C1236   1.420       .  A
C1231      H1238   1.083       .  S
C1232      C1233   1.405       .  A
C1233      C1234   1.389       .  A
C1233      N1240   1.435       .  S
C1234      C1235   1.420       .  A
C1234      H1239   1.072       .  S
C1235      C1236   1.426       .  A
C1236      N1237   1.432       .  S
N1237      H1241   1.045       .  S
N1237      H1242   1.046       .  S
N1240      H1243   1.046       .  S
N1240      H1244   1.044       .  S
C1245      C1246   1.405       .  A
C1245      C1250   1.416       .  A
C1245      H1252   1.084       .  S
C1246      C1247   1.402       .  A
C1247      C1248   1.399       .  A
C1247      N1254   1.440       .  S
C1248      C1249   1.429       .  A
C1248      H1253   1.075       .  S
C1249      C1250   1.434       .  A
C1250      N1251   1.427       .  S
N1251      H1255   1.046       .  S
N1251      H1256   1.046       .  S
N1254      H1257   1.046       .  S
N1254      H1258   1.046       .  S
C1259      C1260   1.398       .  A
C1259      C1264   1.399       .  A
C1259      H1266   1.084       .  S
C1260      C1261   1.415       .  A
C1261      C1262   1.405       .  A
C1261      N1268   1.432       .  S
C1262      C1263   1.419       .  A
C1262      H1267   1.076       .  S
C1263      C1264   1.432       .  A
C1264      N1265   1.434       .  S
N1265      H1269   1.046       .  S
N1265      H1270   1.046       .  S
N1268      H1271   1.046       .  S
N1268      H1272   1.044       .  S
C1273      C1274   1.420       .  A
C1273      C1278   1.423       .  A
C1273      H1280   1.078       .  S
C1274      C1275   1.437       .  A
C1275      C1276   1.397       .  A
C1275      N1282   1.433       .  S
C1276      C1277   1.393       .  A
C1276      H1281   1.084       .  S
C1277      C1278   1.415       .  A
C1278      N1279   1.437       .  S
N1279      H1283   1.045       .  S
N1279      H1284   1.046       .  S
N1282      H1285   1.046       .  S
N1282      H1286   1.046       .  S
C1287      C1288   1.419       .  A
C1287      C1292   1.420       .  A
C1287      H1294   1.079       .  S
C1288      C1289   1.431       .  A
C1289      C1290   1.404       .  A
C1289      N1296   1.428       .  S
C1290      C1291   1.401       .  A
C1290      H1295   1.084       .  S
C1291      C1292   1.411       .  A
C1292      N1293   1.436       .  S
N1293      H1297   1.046       .  S
N1293      H1298   1.045       .  S
N1296      H1299   1.046       .  S
N1296      H1300   1.046       .  S
C1301      C1302   1.409       .  A
C1301      C1306   1.393       .  A
C1301      H1308   1.079       .  S
C1302      C1303   1.418       .  A
C1303      C1304   1.388       .  A
C1303      N1310   1.434       .  S
C1304      C1305   1.416       .  A
C1304      H1309   1.083       .  S
C1305      C1306   1.410       .  A
C1306      N1307   1.418       .  S
N1307      H1311   1.046       .  S
N1307      H1312   1.040       .  S
N1310      H1313   1.046       .  S
N1310      H1314   1.046       .  S
C1315      C1316   1.429       .  A
C1315      C1320   1.377       .  A
C1315      H1322   1.080       .  S
C1316      C1317   1.430       .  A
C1317      C1318   1.424       .  A
C1317      N1324   1.437       .  S
C1318      C1319   1.412       .  A
C1318      H1323   1.083       .  S
C1319      C1320   1.400       .  A
C1320      N1321   1.439       .  S
N1321      H1325   1.046       .  S
N1321      H1326   1.037       .  S
N1324      H1327   1.042       .  S
N1324      H1328   1.045       .  S
C1329      C1330   1.413       .  A
C1329      C1334   1.395       .  A
C1329      H1336   1.078       .  S
C1330      C1331   1.424       .  A
C1331      C1332   1.409       .  A
C1331      N1338   1.436       .  S
C1332      C1333   1.406       .  A
C1332      H1337   1.084       .  S
C1333      C1334   1.417       .  A
C1334      N1335   1.433       .  S
N1335      H1339   1.045       .  S
N1335      H1340   1.046       .  S
N1338      H1341   1.043       .  S
N1338      H1342   1.044       .  S
C1343      C1344   1.422       .  A
C1343      C1348   1.425       .  A
C1343      H1350   1.083       .  S
C1344      C1345   1.434       .  A
C1345      C1346   1.384       .  A
C1345      N1352   1.416       .  S
C1346      C1347   1.372       .  A
C1346      H1351   1.088       .  S
C1347      C1348   1.417       .  A
C1348      N1349   1.436       .  S
N1349      H1353   1.046       .  S
N1349      H1354   1.045       .  S
N1352      H1355   1.041       .  S
N1352      H1356   1.046       .  S
C1357      C1358   1.418       .  A
C1357      C1362   1.395       .  A
C1357      H1364   1.058       .  S
C1358      C1359   1.437       .  A
C1359      C1360   1.398       .  A
C1359      N1366   1.440       .  S
C1360      C1361   1.406       .  A
C1360      H1365   1.073       .  S
C1361      C1362   1.416       .  A
C1362      N1363   1.433       .  S
N1363      H1367   1.046       .  S
N1363      H1368   1.046       .  S
N1366      H1369   1.046       .  S
N1366      H1370   1.046       .  S
C1371      C1372   1.396       .  A
C1371      C1376   1.396       .  A
C1371      H1378   1.084       .  S
C1372      C1373   1.412       .  A
C1373      C1374   1.413       .  A
C1373      N1380   1.438       .  S
C1374      C1375   1.417       .  A
C1374      H1379   1.075       .  S
C1375      C1376   1.432       .  A
C1376      N1377   1.435       .  S
N1377      H1381   1.045       .  S
N1377      H1382   1.046       .  S
N1380      H1383   1.046       .  S
N1380      H1384   1.045       .  S
C1385      C1386   1.417       .  A
C1385      C1390   1.409       .  A
C1385      H1392   1.075       .  S
C1386      C1387   1.437       .  A
C1387      C1388   1.397       .  A
C1387      N1394   1.436       .  S
C1388      C1389   1.395       .  A
C1388      H1393   1.084       .  S
C1389      C1390   1.418       .  A
C1390      N1391   1.432       .  S
N1391      H1395   1.044       .  S
N1391      H1396   1.046       .  S
N1394      H1397   1.046       .  S
N1394      H1398   1.046       .  S
C1399      C1400   1.418       .  A
C1399      C1404   1.404       .  A
C1399      H1406   1.080       .  S
C1400      C1401   1.429       .  A
C1401      C1402   1.407       .  A
C1401      N1408   1.434       .  S
C1402      C1403   1.402       .  A
C1402      H1407   1.083       .  S
C1403      C1404   1.411       .  A
C1404      N1405   1.432       .  S
N1405      H1409   1.044       .  S
N1405      H1410   1.046       .  S
N1408      H1411   1.045       .  S
N1408      H1412   1.046       .  S
C1413      C1414   1.403       .  A
C1413      C1418   1.391       .  A
C1413      H1420   1.080       .  S
C1414      C1415   1.423       .  A
C1415      C1416   1.393       .  A
C1415      N1422   1.440       .  S
C1416      C1417   1.409       .  A
C1416      H1421   1.067       .  S
C1417      C1418   1.440       .  A
C1418      N1419   1.432       .  S
N1419      H1423   1.040       .  S
N1419      H1424   1.043       .  S
N1422      H1425   1.045       .  S
N1422      H1426   1.046       .  S
C1427      C1428   1.421       .  A
C1427      C1432   1.421       .  A
C1427      H1434   1.083       .  S
C1428      C1429   1.443       .  A
C1429      C1430   1.383       .  A
C1429      N1436   1.424       .  S
C1430      C1431   1.373       .  A
C1430      H1435   1.088       .  S
C1431      C1432   1.415       .  A
C1432      N1433   1.436       .  S
N1433      H1437   1.045       .  S
N1433      H1438   1.045       .  S
N1436      H1439   1.036       .  S
N1436      H1440   1.046       .  S
C1441      C1442   1.418       .  A
C1441      C1446   1.422       .  A
C1441      H1448   1.082       .  S
C1442      C1443   1.444       .  A
C1443      C1444   1.391       .  A
C1443      N1450   1.434       .  S
C1444      C1445   1.386       .  A
C1444      H1449   1.086       .  S
C1445      C1446   1.420       .  A
C1446      N1447   1.437       .  S
N1447      H1451   1.046       .  S
N1447      H1452   1.044       .  S
N1450      H1453   1.042       .  S
N1450      H1454   1.046       .  S
C1455      C1456   1.417       .  A
C1455      C1460   1.417       .  A
C1455      H1462   1.076       .  S
C1456      C1457   1.435       .  A
C1457      C1458   1.415       .  A
C1457      N1464   1.434       .  S
C1458      C1459   1.403       .  A
C1458      H1463   1.083       .  S
C1459      C1460   1.415       .  A
C1460      N1461   1.437       .  S
N1461      H1465   1.046       .  S
N1461      H1466   1.045       .  S
N1464      H1467   1.045       .  S
N1464      H1468   1.046       .  S
C1469      C1470   1.420       .  A
C1469      C1474   1.395       .  A
C1469      H1476   1.083       .  S
C1470      C1471   1.416       .  A
C1471      C1472   1.394       .  A
C1471      N1478   1.427       .  S
C1472      C1473   1.398       .  A
C1472      H1477   1.058       .  S
C1473      C1474   1.416       .  A
C1474      N1475   1.432       .  S
N1475      H1479   1.044       .  S
N1475      H1480   1.046       .  S
N1478      H1481   1.046       .  S
N1478      H1482   1.045       .  S
C1483      C1484   1.394       .  A
C1483      C1488   1.396       .  A
C1483      H1490   1.085       .  S
C1484      C1485   1.416       .  A
C1485      C1486   1.415       .  A
C1485      N1492   1.440       .  S
C1486      C1487   1.424       .  A
C1486      H1491   1.068       .  S
C1487      C1488   1.453       .  A
C1488      N1489   1.439       .  S
N1489      H1493   1.044       .  S
N1489      H1494   1.036       .  S
N1492      H1495   1.042       .  S
N1492      H1496   1.046       .  S
C1497      C1498   1.419       .  A
C1497      C1502   1.410       .  A
C1497      H1504   1.080       .  S
C1498      C1499   1.431       .  A
C1499      C1500   1.406       .  A
C1499      N1506   1.436       .  S
C1500      C1501   1.404       .  A
C1500      H1505   1.084       .  S
C1501      C1502   1.413       .  A
C1502      N1503   1.438       .  S
N1503      H1507   1.046       .  S
N1503      H1508   1.046       .  S
N1506      H1509   1.042       .  S
N1506      H1510   1.045       .  S
C1511      C1512   1.422       .  A
C1511      C1516   1.384       .  A
C1511      H1518   1.072       .  S
C1512      C1513   1.430       .  A
C1513      C1514   1.424       .  A
C1513      N1520   1.437       .  S
C1514      C1515   1.405       .  A
C1514      H1519   1.083       .  S
C1515      C1516   1.386       .  A
C1516      N1517   1.434       .  S
N1517      H1521   1.043       .  S
N1517      H1522   1.043       .  S
N1520      H1523   1.044       .  S
N1520      H1524   1.046       .  S
C1525      C1526   1.405       .  A
C1525      C1530   1.388       .  A
C1525      H1532   1.067       .  S
C1526      C1527   1.421       .  A
C1527      C1528   1.405       .  A
C1527      N1534   1.439       .  S
C1528      C1529   1.417       .  A
C1528      H1533   1.067       .  S
C1529      C1530   1.437       .  A
C1530      N1531   1.429       .  S
N1531      H1535   1.040       .  S
N1531      H1536   1.043       .  S
N1534      H1537   1.041       .  S
N1534      H1538   1.046       .  S
C1539      C1540   1.420       .  A
C1539      C1544   1.396       .  A
C1539      H1546   1.084       .  S
C1540      C1541   1.435       .  A
C1541      C1542   1.408       .  A
C1541      N1548   1.427       .  S
C1542      C1543   1.400       .  A
C1542      H1547   1.084       .  S
C1543      C1544   1.410       .  A
C1544      N1545   1.432       .  S
N1545      H1549   1.045       .  S
N1545      H1550   1.044       .  S
N1548      H1551   1.046       .  S
N1548      H1552   1.046       .  S
C1553      C1554   1.421       .  A
C1553      C1558   1.405       .  A
C1553      H1560   1.067       .  S
C1554      C1555   1.429       .  A
C1555      C1556   1.416       .  A
C1555      N1562   1.433       .  S
C1556      C1557   1.405       .  A
C1556      H1561   1.084       .  S
C1557      C1558   1.405       .  A
C1558      N1559   1.439       .  S
N1559      H1563   1.046       .  S
N1559      H1564   1.046       .  S
N1562      H1565   1.045       .  S
N1562      H1566   1.045       .  S
C1567      C1568   1.416       .  A
C1567      C1572   1.414       .  A
C1567      H1574   1.081       .  S
C1568      C1569   1.429       .  A
C1569      C1570   1.399       .  A
C1569      N1576   1.428       .  S
C1570      C1571   1.395       .  A
C1570      H1575   1.084       .  S
C1571      C1572   1.422       .  A
C1572      N1573   1.439       .  S
N1573      H1577   1.046       .  S
N1573      H1578   1.042       .  S
N1576      H1579   1.046       .  S
N1576      H1580   1.046       .  S
C1581      C1582   1.411       .  A
C1581      C1586   1.396       .  A
C1581      H1588   1.078       .  S
C1582      C1583   1.431       .  A
C1583      C1584   1.386       .  A
C1583      N1590   1.426       .  S
C1584      C1585   1.405       .  A
C1584      H1589   1.071       .  S
C1585      C1586   1.435       .  A
C1586      N1587   1.440       .  S
N1587      H1591   1.046       .  S
N1587      H1592   1.046       .  S
N1590      H1593   1.035       .  S
N1590      H1594   1.043       .  S
C1595      C1596   1.416       .  A
C1595      C1600   1.415       .  A
C1595      H1602   1.080       .  S
C1596      C1597   1.431       .  A
C1597      C1598   1.412       .  A
C1597      N1604   1.435       .  S
C1598      C1599   1.404       .  A
C1598      H1603   1.083       .  S
C1599      C1600   1.414       .  A
C1600      N1601   1.437       .  S
N1601      H1605   1.046       .  S
N1601      H1606   1.046       .  S
N1604      H1607   1.045       .  S
N1604      H1608   1.045       .  S
C1609      C1610   1.430       .  A
C1609      C1614   1.403       .  A
C1609      H1616   1.073       .  S
C1610      C1611   1.436       .  A
C1611      C1612   1.417       .  A
C1611      N1618   1.427       .  S
C1612      C1613   1.404       .  A
C1612      H1617   1.084       .  S
C1613      C1614   1.402       .  A
C1614      N1615   1.440       .  S
N1615      H1619   1.046       .  S
N1615      H1620   1.046       .  S
N1618      H1621   1.046       .  S
N1618      H1622   1.045       .  S
C1623      C1624   1.415       .  A
C1623      C1628   1.426       .  A
C1623      H1630   1.083       .  S
C1624      C1625   1.406       .  A
C1625      C1626   1.383       .  A
C1625      N1632   1.443       .  S
C1626      C1627   1.426       .  A
C1626      H1631   1.084       .  S
C1627      C1628   1.416       .  A
C1628      N1629   1.437       .  S
N1629      H1633   1.046       .  S
N1629      H1634   1.045       .  S
N1632      H1635   1.039       .  S
N1632      H1636   1.046       .  S
C1637      C1638   1.412       .  A
C1637      C1642   1.405       .  A
C1637      H1644   1.079       .  S
C1638      C1639   1.420       .  A
C1639      C1640   1.382       .  A
C1639      N1646   1.436       .  S
C1640      C1641   1.403       .  A
C1640      H1645   1.074       .  S
C1641      C1642   1.428       .  A
C1642      N1643   1.434       .  S
N1643      H1647   1.045       .  S
N1643      H1648   1.045       .  S
N1646      H1649   1.045       .  S
N1646      H1650   1.046       .  S
C1651      C1652   1.418       .  A
C1651      C1656   1.419       .  A
C1651      H1658   1.078       .  S
C1652      C1653   1.431       .  A
C1653      C1654   1.388       .  A
C1653      N1660   1.437       .  S
C1654      C1655   1.398       .  A
C1654      H1659   1.084       .  S
C1655      C1656   1.414       .  A
C1656      N1657   1.436       .  S
N1657      H1661   1.046       .  S
N1657      H1662   1.045       .  S
N1660      H1663   1.041       .  S
N1660      H1664   1.044       .  S
C1665      C1666   1.426       .  A
C1665      C1670   1.382       .  A
C1665      H1672   1.080       .  S
C1666      C1667   1.432       .  A
C1667      C1668   1.420       .  A
C1667      N1674   1.436       .  S
C1668      C1669   1.406       .  A
C1668      H1673   1.084       .  S
C1669      C1670   1.402       .  A
C1670      N1671   1.440       .  S
N1671      H1675   1.046       .  S
N1671      H1676   1.037       .  S
N1674      H1677   1.038       .  S
N1674      H1678   1.045       .  S
C1679      C1680   1.405       .  A
C1679      C1684   1.391       .  A
C1679      H1686   1.080       .  S
C1680      C1681   1.423       .  A
C1681      C1682   1.390       .  A
C1681      N1688   1.430       .  S
C1682      C1683   1.411       .  A
C1682      H1687   1.085       .  S
C1683      C1684   1.419       .  A
C1684      N1685   1.422       .  S
N1685      H1689   1.046       .  S
N1685      H1690   1.039       .  S
N1688      H1691   1.046       .  S
N1688      H1692   1.046       .  S
C1693      C1694   1.418       .  A
C1693      C1698   1.403       .  A
C1693      H1700   1.076       .  S
C1694      C1695   1.430       .  A
C1695      C1696   1.418       .  A
C1695      N1702   1.437       .  S
C1696      C1697   1.403       .  A
C1696      H1701   1.083       .  S
C1697      C1698   1.410       .  A
C1698      N1699   1.440       .  S
N1699      H1703   1.046       .  S
N1699      H1704   1.045       .  S
N1702      H1705   1.043       .  S
N1702      H1706   1.046       .  S
C1707      C1708   1.423       .  A
C1707      C1712   1.401       .  A
C1707      H1714   1.081       .  S
C1708      C1709   1.428       .  A
C1709      C1710   1.412       .  A
C1709      N1716   1.429       .  S
C1710      C1711   1.404       .  A
C1710      H1715   1.084       .  S
C1711      C1712   1.406       .  A
C1712      N1713   1.439       .  S
N1713      H1717   1.046       .  S
N1713      H1718   1.046       .  S
N1716      H1719   1.046       .  S
N1716      H1720   1.045       .  S
C1721      C1722   1.406       .  A
C1721      C1726   1.416       .  A
C1721      H1728   1.083       .  S
C1722      C1723   1.406       .  A
C1723      C1724   1.398       .  A
C1723      N1730   1.440       .  S
C1724      C1725   1.414       .  A
C1724      H1729   1.068       .  S
C1725      C1726   1.423       .  A
C1726      N1727   1.436       .  S
N1727      H1731   1.045       .  S
N1727      H1732   1.045       .  S
N1730      H1733   1.046       .  S
N1730      H1734   1.046       .  S
C1735      C1736   1.414       .  A
C1735      C1740   1.415       .  A
C1735      H1742   1.081       .  S
C1736      C1737   1.432       .  A
C1737      C1738   1.399       .  A
C1737      N1744   1.435       .  S
C1738      C1739   1.399       .  A
C1738      H1743   1.084       .  S
C1739      C1740   1.416       .  A
C1740      N1741   1.437       .  S
N1741      H1745   1.046       .  S
N1741      H1746   1.045       .  S
N1744      H1747   1.046       .  S
N1744      H1748   1.046       .  S
C1749      C1750   1.399       .  A
C1749      C1754   1.383       .  A
C1749      H1756   1.079       .  S
C1750      C1751   1.414       .  A
C1751      C1752   1.395       .  A
C1751      N1758   1.434       .  S
C1752      C1753   1.413       .  A
C1752      H1757   1.062       .  S
C1753      C1754   1.442       .  A
C1754      N1755   1.435       .  S
N1755      H1759   1.046       .  S
N1755      H1760   1.046       .  S
N1758      H1761   1.046       .  S
N1758      H1762   1.046       .  S
C1763      C1764   1.402       .  A
C1763      C1768   1.414       .  A
C1763      H1770   1.084       .  S
C1764      C1765   1.408       .  A
C1765      C1766   1.408       .  A
C1765      N1772   1.438       .  S
C1766      C1767   1.417       .  A
C1766      H1771   1.076       .  S
C1767      C1768   1.433       .  A
C1768      N1769   1.438       .  S
N1769      H1773   1.046       .  S
N1769      H1774   1.045       .  S
N1772      H1775   1.046       .  S
N1772      H1776   1.046       .  S
C1777      C1778   1.426       .  A
C1777      C1782   1.391       .  A
C1777      H1784   1.082       .  S
C1778      C1779   1.422       .  A
C1779      C1780   1.420       .  A
C1779      N1786   1.436       .  S
C1780      C1781   1.407       .  A
C1780      H1785   1.083       .  S
C1781      C1782   1.400       .  A
C1782      N1783   1.443       .  S
N1783      H1787   1.046       .  S
N1783      H1788   1.042       .  S
N1786      H1789   1.045       .  S
N1786      H1790   1.045       .  S
C1791      C1792   1.414       .  A
C1791      C1796   1.420       .  A
C1791      H1798   1.079       .  S
C1792      C1793   1.433       .  A
C1793      C1794   1.398       .  A
C1793      N1800   1.434       .  S
C1794      C1795   1.396       .  A
C1794      H1799   1.083       .  S
C1795      C1796   1.417       .  A
C1796      N1797   1.437       .  S
N1797      H1801   1.046       .  S
N1797      H1802   1.045       .  S
N1800      H1803   1.046       .  S
N1800      H1804   1.046       .  S
C1805      C1806   1.412       .  A
C1805      C1810   1.388       .  A
C1805      H1812   1.081       .  S
C1806      C1807   1.419       .  A
C1807      C1808   1.399       .  A
C1807      N1814   1.438       .  S
C1808      C1809   1.421       .  A
C1808      H1813   1.083       .  S
C1809      C1810   1.414       .  A
C1810      N1811   1.428       .  S
N1811      H1815   1.045       .  S
N1811      H1816   1.046       .  S
N1814      H1817   1.044       .  S
N1814      H1818   1.045       .  S
C1819      C1820   1.423       .  A
C1819      C1824   1.413       .  A
C1819      H1826   1.077       .  S
C1820      C1821   1.440       .  A
C1821      C1822   1.395       .  A
C1821      N1828   1.430       .  S
C1822      C1823   1.391       .  A
C1822      H1827   1.084       .  S
C1823      C1824   1.415       .  A
C1824      N1825   1.432       .  S
N1825      H1829   1.045       .  S
N1825      H1830   1.046       .  S
N1828      H1831   1.046       .  S
N1828      H1832   1.047       .  S
C1833      C1834   1.421       .  A
C1833      C1838   1.396       .  A
C1833      H1840   1.083       .  S
C1834      C1835   1.432       .  A
C1835      C1836   1.409       .  A
C1835      N1842   1.429       .  S
C1836      C1837   1.402       .  A
C1836      H1841   1.084       .  S
C1837      C1838   1.411       .  A
C1838      N1839   1.432       .  S
N1839      H1843   1.045       .  S
N1839      H1844   1.044       .  S
N1842      H1845   1.046       .  S
N1842      H1846   1.046       .  S
C1847      C1848   1.401       .  A
C1847      C1852   1.386       .  A
C1847      H1854   1.079       .  S
C1848      C1849   1.422       .  A
C1849      C1850   1.396       .  A
C1849      N1856   1.430       .  S
C1850      C1851   1.414       .  A
C1850      H1855   1.084       .  S
C1851      C1852   1.422       .  A
C1852      N1853   1.411       .  S
N1853      H1857   1.040       .  S
N1853      H1858   1.040       .  S
N1856      H1859   1.046       .  S
N1856      H1860   1.046       .  S
C1861      C1862   1.418       .  A
C1861      C1866   1.398       .  A
C1861      H1868   1.077       .  S
C1862      C1863   1.426       .  A
C1863      C1864   1.419       .  A
C1863      N1870   1.432       .  S
C1864      C1865   1.408       .  A
C1864      H1869   1.083       .  S
C1865      C1866   1.418       .  A
C1866      N1867   1.433       .  S
N1867      H1871   1.045       .  S
N1867      H1872   1.043       .  S
N1870      H1873   1.046       .  S
N1870      H1874   1.045       .  S
C1875      C1876   1.422       .  A
C1875      C1880   1.384       .  A
C1875      H1882   1.075       .  S
C1876      C1877   1.423       .  A
C1877      C1878   1.425       .  A
C1877      N1884   1.437       .  S
C1878      C1879   1.407       .  A
C1878      H1883   1.083       .  S
C1879      C1880   1.388       .  A
C1880      N1881   1.437       .  S
N1881      H1885   1.045       .  S
N1881      H1886   1.041       .  S
N1884      H1887   1.045       .  S
N1884      H1888   1.045       .  S
C1889      C1890   1.417       .  A
C1889      C1894   1.413       .  A
C1889      H1896   1.081       .  S
C1890      C1891   1.425       .  A
C1891      C1892   1.395       .  A
C1891      N1898   1.428       .  S
C1892      C1893   1.396       .  A
C1892      H1897   1.085       .  S
C1893      C1894   1.418       .  A
C1894      N1895   1.438       .  S
N1895      H1899   1.046       .  S
N1895      H1900   1.042       .  S
N1898      H1901   1.046       .  S
N1898      H1902   1.046       .  S
C1903      C1904   1.404       .  A
C1903      C1908   1.411       .  A
C1903      H1910   1.084       .  S
C1904      C1905   1.409       .  A
C1905      C1906   1.402       .  A
C1905      N1912   1.439       .  S
C1906      C1907   1.416       .  A
C1906      H1911   1.073       .  S
C1907      C1908   1.434       .  A
C1908      N1909   1.437       .  S
N1909      H1913   1.045       .  S
N1909      H1914   1.043       .  S
N1912      H1915   1.045       .  S
N1912      H1916   1.046       .  S
C1917      C1918   1.411       .  A
C1917      C1922   1.391       .  A
C1917      H1924   1.068       .  S
C1918      C1919   1.438       .  A
C1919      C1920   1.389       .  A
C1919      N1926   1.434       .  S
C1920      C1921   1.403       .  A
C1920      H1925   1.078       .  S
C1921      C1922   1.422       .  A
C1922      N1923   1.438       .  S
N1923      H1927   1.046       .  S
N1923      H1928   1.045       .  S
N1926      H1929   1.046       .  S
N1926      H1930   1.046       .  S
C1931      C1932   1.419       .  A
C1931      C1936   1.406       .  A
C1931      H1938   1.083       .  S
C1932      C1933   1.423       .  A
C1933      C1934   1.410       .  A
C1933      N1940   1.436       .  S
C1934      C1935   1.404       .  A
C1934      H1939   1.083       .  S
C1935      C1936   1.413       .  A
C1936      N1937   1.439       .  S
N1937      H1941   1.046       .  S
N1937      H1942   1.046       .  S
N1940      H1943   1.045       .  S
N1940      H1944   1.046       .  S
C1945      C1946   1.418       .  A
C1945      C1950   1.410       .  A
C1945      H1952   1.076       .  S
C1946      C1947   1.439       .  A
C1947      C1948   1.397       .  A
C1947      N1954   1.436       .  S
C1948      C1949   1.395       .  A
C1948      H1953   1.084       .  S
C1949      C1950   1.418       .  A
C1950      N1951   1.432       .  S
N1951      H1955   1.044       .  S
N1951      H1956   1.045       .  S
N1954      H1957   1.046       .  S
N1954      H1958   1.046       .  S
C1959      C1960   1.405       .  A
C1959      C1964   1.395       .  A
C1959      H1966   1.070       .  S
C1960      C1961   1.431       .  A
C1961      C1962   1.396       .  A
C1961      N1968   1.438       .  S
C1962      C1963   1.405       .  A
C1962      H1967   1.066       .  S
C1963      C1964   1.438       .  A
C1964      N1965   1.434       .  S
N1965      H1969   1.046       .  S
N1965      H1970   1.046       .  S
N1968      H1971   1.045       .  S
N1968      H1972   1.046       .  S
C1973      C1974   1.416       .  A
C1973      C1978   1.413       .  A
C1973      H1980   1.079       .  S
C1974      C1975   1.433       .  A
C1975      C1976   1.409       .  A
C1975      N1982   1.435       .  S
C1976      C1977   1.401       .  A
C1976      H1981   1.083       .  S
C1977      C1978   1.413       .  A
C1978      N1979   1.438       .  S
N1979      H1983   1.046       .  S
N1979      H1984   1.045       .  S
N1982      H1985   1.045       .  S
N1982      H1986   1.045       .  S
C1987      C1988   1.424       .  A
C1987      C1992   1.387       .  A
C1987      H1994   1.061       .  S
C1988      C1989   1.430       .  A
C1989      C1990   1.432       .  A
C1989      N1996   1.437       .  S
C1990      C1991   1.410       .  A
C1990      H1995   1.083       .  S
C1991      C1992   1.382       .  A
C1992      N1993   1.434       .  S
N1993      H1997   1.046       .  S
N1993      H1998   1.042       .  S
N1996      H1999   1.044       .  S
N1996      H2000   1.045       .  S
C2001      C2002   1.402       .  A
C2001      C2006   1.415       .  A
C2001      H2008   1.084       .  S
C2002      C2003   1.406       .  A
C2003      C2004   1.392       .  A
C2003      N2010   1.434       .  S
C2004      C2005   1.413       .  A
C2004      H2009   1.056       .  S
C2005      C2006   1.434       .  A
C2006      N2007   1.432       .  S
N2007      H2011   1.046       .  S
N2007      H2012   1.046       .  S
N2010      H2013   1.046       .  S
N2010      H2014   1.044       .  S
C2015      C2016   1.414       .  A
C2015      C2020   1.406       .  A
C2015      H2022   1.081       .  S
C2016      C2017   1.427       .  A
C2017      C2018   1.400       .  A
C2017      N2024   1.432       .  S
C2018      C2019   1.400       .  A
C2018      H2023   1.084       .  S
C2019      C2020   1.418       .  A
C2020      N2021   1.432       .  S
N2021      H2025   1.046       .  S
N2021      H2026   1.044       .  S
N2024      H2027   1.046       .  S
N2024      H2028   1.045       .  S
C2029      C2030   1.414       .  A
C2029      C2034   1.394       .  A
C2029      H2036   1.082       .  S
C2030      C2031   1.424       .  A
C2031      C2032   1.393       .  A
C2031      N2038   1.436       .  S
C2032      C2033   1.418       .  A
C2032      H2037   1.080       .  S
C2033      C2034   1.421       .  A
C2034      N2035   1.436       .  S
N2035      H2039   1.046       .  S
N2035      H2040   1.046       .  S
N2038      H2041   1.046       .  S
N2038      H2042   1.046       .  S
C2043      C2044   1.407       .  A
C2043      C2048   1.416       .  A
C2043      H2050   1.083       .  S
C2044      C2045   1.413       .  A
C2045      C2046   1.395       .  A
C2045      N2052   1.433       .  S
C2046      C2047   1.419       .  A
C2046      H2051   1.084       .  S
C2047      C2048   1.421       .  A
C2048      N2049   1.436       .  S
N2049      H2053   1.045       .  S
N2049      H2054   1.046       .  S
N2052      H2055   1.046       .  S
N2052      H2056   1.045       .  S
C2057      C2058   1.416       .  A
C2057      C2062   1.411       .  A
C2057      H2064   1.081       .  S
C2058      C2059   1.435       .  A
C2059      C2060   1.398       .  A
C2059      N2066   1.436       .  S
C2060      C2061   1.401       .  A
C2060      H2065   1.084       .  S
C2061      C2062   1.420       .  A
C2062      N2063   1.439       .  S
N2063      H2067   1.046       .  S
N2063      H2068   1.041       .  S
N2066      H2069   1.046       .  S
N2066      H2070   1.046       .  S
C2071      C2072   1.420       .  A
C2071      C2076   1.383       .  A
C2071      H2078   1.075       .  S
C2072      C2073   1.427       .  A
C2073      C2074   1.402       .  A
C2073      N2080   1.425       .  S
C2074      C2075   1.408       .  A
C2074      H2079   1.084       .  S
C2075      C2076   1.415       .  A
C2076      N2077   1.434       .  S
N2077      H2081   1.046       .  S
N2077      H2082   1.046       .  S
N2080      H2083   1.046       .  S
N2080      H2084   1.047       .  S
C2085      C2086   1.417       .  A
C2085      C2090   1.397       .  A
C2085      H2092   1.081       .  S
C2086      C2087   1.424       .  A
C2087      C2088   1.418       .  A
C2087      N2094   1.436       .  S
C2088      C2089   1.405       .  A
C2088      H2093   1.083       .  S
C2089      C2090   1.403       .  A
C2090      N2091   1.432       .  S
N2091      H2095   1.046       .  S
N2091      H2096   1.046       .  S
N2094      H2097   1.045       .  S
N2094      H2098   1.046       .  S
C2099      C2100   1.408       .  A
C2099      C2104   1.404       .  A
C2099      H2106   1.073       .  S
C2100      C2101   1.430       .  A
C2101      C2102   1.416       .  A
C2101      N2108   1.437       .  S
C2102      C2103   1.402       .  A
C2102      H2107   1.083       .  S
C2103      C2104   1.415       .  A
C2104      N2105   1.440       .  S
N2105      H2109   1.046       .  S
N2105      H2110   1.043       .  S
N2108      H2111   1.045       .  S
N2108      H2112   1.046       .  S
C2113      C2114   1.418       .  A
C2113      C2118   1.405       .  A
C2113      H2120   1.075       .  S
C2114      C2115   1.427       .  A
C2115      C2116   1.422       .  A
C2115      N2122   1.435       .  S
C2116      C2117   1.408       .  A
C2116      H2121   1.083       .  S
C2117      C2118   1.414       .  A
C2118      N2119   1.438       .  S
N2119      H2123   1.046       .  S
N2119      H2124   1.042       .  S
N2122      H2125   1.045       .  S
N2122      H2126   1.045       .  S
C2127      C2128   1.401       .  A
C2127      C2132   1.386       .  A
C2127      H2134   1.080       .  S
C2128      C2129   1.424       .  A
C2129      C2130   1.391       .  A
C2129      N2136   1.425       .  S
C2130      C2131   1.406       .  A
C2130      H2135   1.077       .  S
C2131      C2132   1.439       .  A
C2132      N2133   1.443       .  S
N2133      H2137   1.046       .  S
N2133      H2138   1.030       .  S
N2136      H2139   1.046       .  S
N2136      H2140   1.045       .  S
C2141      C2142   1.423       .  A
C2141      C2146   1.415       .  A
C2141      H2148   1.072       .  S
C2142      C2143   1.448       .  A
C2143      C2144   1.395       .  A
C2143      N2150   1.439       .  S
C2144      C2145   1.394       .  A
C2144      H2149   1.085       .  S
C2145      C2146   1.416       .  A
C2146      N2147   1.439       .  S
N2147      H2151   1.046       .  S
N2147      H2152   1.042       .  S
N2150      H2153   1.030       .  S
N2150      H2154   1.046       .  S
C2155      C2156   1.411       .  A
C2155      C2160   1.427       .  A
C2155      H2162   1.083       .  S
C2156      C2157   1.393       .  A
C2157      C2158   1.383       .  A
C2157      N2164   1.441       .  S
C2158      C2159   1.428       .  A
C2158      H2163   1.080       .  S
C2159      C2160   1.422       .  A
C2160      N2161   1.436       .  S
N2161      H2165   1.046       .  S
N2161      H2166   1.045       .  S
N2164      H2167   1.045       .  S
N2164      H2168   1.044       .  S
