geometry optimzed in LAMMPS
_audit_creation_date              2020-11-30 
_audit_creation_method            'lammps2cif' 
_symmetry_space_group_name_H-M    'P1' 
_symmetry_Int_Tables_number       1 
_symmetry_cell_setting            triclinic 
loop_ 
_symmetry_equiv_pos_as_xyz 
  x,y,z 
_cell_length_a                    44.16762497 
_cell_length_b                    25.22115591922454 
_cell_length_c                    44.566566867741585 
_cell_angle_alpha                 90.15493274690355 
_cell_angle_beta                  89.77216911310246 
_cell_angle_gamma                 89.93645956249583 
loop_ 
_atom_site_label 
_atom_site_type_symbol 
_atom_site_fract_x 
_atom_site_fract_y 
_atom_site_fract_z 
_atom_site_charge 
C1          C  0.23551524  0.54783945  0.50485847     0.02200
C2          C  0.26690392  0.54717417  0.49792699     0.02200
C3          C  0.28136747  0.49815910  0.49319341    -0.18300
C4          C  0.26543187  0.45012569  0.99466504     0.02200
C5          C  0.23389367  0.45113674  0.99983793     0.02200
C6          C  0.21951659  0.49973673  0.00555845    -0.18300
H7          H  0.19522902  0.50033095  0.00933654     0.04200
H8          H  0.30555776  0.49729892  0.48886566     0.04200
C9          C  0.01732095  0.95307947  0.99726709     0.02200
C10         C  0.48591698  0.95124539  0.00390006     0.02200
C11         C  0.46973877  0.99888540  0.00666857    -0.18300
C12         C  0.48391802  0.04824140  0.00360686     0.02200
C13         C  0.01546075  0.05042066  0.99864155     0.02200
C14         C  0.03165345  0.00277832  0.99497358    -0.18300
H15         H  0.05596676  0.00436872  0.99153260     0.04200
H16         H  0.44550944  0.99752255  0.01076677     0.04200
O17         O  0.12381889  0.29368165  0.44818164    -0.88400
C18         C  0.11306059  0.13855608  0.47357928     0.87600
Mg19       Mg  0.16317031  0.34145274  0.45842085     1.58100
O20         O  0.06626389  0.22860059  0.01243266    -0.88100
O21         O  0.07425108  0.29481013  0.45275217    -0.75500
C22         C  0.17947339  0.30280740  0.10378822     0.92700
O23         O  0.17551027  0.20529872  0.45858084    -0.75300
O24         O  0.19552436  0.31396505  0.08093916    -0.82800
Mg25       Mg  0.13285344  0.21580391  0.43008418     1.58000
C26         C  0.06357829  0.22351031  0.10483647     0.92600
O27         O  0.09423809  0.21948957  0.39693736    -0.81100
H28         H  0.03538592  0.28654065  0.01163498    -0.06400
C29         C  0.14669171  0.18992465  0.05260396     0.87500
O30         O  0.13810051  0.38134565  0.49746836    -0.75600
O31         O  0.10467058  0.18179231  0.46374676    -0.88300
O32         O  0.05838416  0.19197999  0.08302693    -0.81100
C33         C  0.03296825  0.10014899  0.00142673     0.92700
C34         C  0.06654892  0.20722340  0.39417700     0.92600
Mg35       Mg  0.11334749  0.29168527  0.06789759     1.58000
O36         O  0.15213774  0.28755776  0.10159226    -0.81100
O37         O  0.07101252  0.30154598  0.03890728    -0.75300
O38         O  0.03883482  0.12742877  0.47799163    -0.81100
O39         O  0.16143347  0.25045905  0.39408041    -0.82900
O40         O  0.20811181  0.37691646  0.02003385    -0.81200
C41         C  0.05641427  0.27209655  0.02090396     0.87000
O42         O  0.14170374  0.32488980  0.03416975    -0.88300
O43         O  0.12221277  0.21345815  0.05031545    -0.88400
O44         O  0.17173538  0.21197339  0.04602458    -0.75500
Mg45       Mg  0.05874859  0.21069282  0.46621116     1.58000
O46         O  0.04336098  0.11228808  0.02722825    -0.82900
H47         H  0.09912118  0.35832153  0.43954983    -0.06600
O48         O  0.17981548  0.27726911  0.48579594    -0.88100
H49         H  0.21104075  0.21987231  0.48607670    -0.06400
H50         H  0.12196914  0.39569665  0.03942739    -0.06600
C51         C  0.18992640  0.23423870  0.47696070     0.87000
C52         C  0.09926098  0.31715753  0.44625460     0.87600
C53         C  0.13372440  0.36853297  0.02461241     0.87600
H54         H  0.14672683  0.14895698  0.05968094    -0.06600
O55         O  0.10879314  0.12601228  0.00075350    -0.75600
Mg56       Mg  0.18732243  0.29553133  0.03193423     1.58000
H57         H  0.12511109  0.11151080  0.45893009    -0.06600
C58         C  0.18172578  0.28587710  0.39277916     0.92600
O59         O  0.20388545  0.39275552  0.47087116    -0.82800
C60         C  0.21470016  0.40369599  0.99668053     0.92600
O61         O  0.04990618  0.19547842  0.41656946    -0.82800
Mg62       Mg  0.08337643  0.16504971  0.03990164     1.58200
O63         O  0.18816639  0.31463608  0.41541193    -0.81100
O64         O  0.08364689  0.25926553  0.10368533    -0.82800
O65         O  0.37014270  0.20385521  0.04821579    -0.88400
C66         C  0.36130803  0.35955429  0.02395873     0.87600
Mg67       Mg  0.41003699  0.15625141  0.04030071     1.58100
O68         O  0.31534202  0.27127747  0.48292484    -0.88100
O69         O  0.32068983  0.20481738  0.04294616    -0.75500
C70         C  0.43264028  0.19828403  0.39607553     0.92700
O71         O  0.42240073  0.29226789  0.04176600    -0.75300
O72         O  0.44868929  0.18614997  0.41876143    -0.82800
Mg73       Mg  0.37807760  0.28018182  0.06782028     1.58000
C74         C  0.31810778  0.27709341  0.39074436     0.92600
O75         O  0.33750387  0.27187387  0.09846727    -0.81100
H76         H  0.28472916  0.21301920  0.48300366    -0.06400
C77         C  0.39823465  0.30878642  0.44626531     0.87500
O78         O  0.38763938  0.11596494  0.00014567    -0.75600
O79         O  0.35231083  0.31608147  0.03284244    -0.88300
O80         O  0.31235199  0.30926774  0.41213176    -0.81100
C81         C  0.28293390  0.40043644  0.99189837     0.92700
C82         C  0.31140424  0.29246815  0.10059539     0.92600
Mg83       Mg  0.36535925  0.20732963  0.43023046     1.58000
O84         O  0.40503080  0.21139630  0.39851470    -0.81100
O85         O  0.32185970  0.19742933  0.45759817    -0.75300
O86         O  0.28720946  0.37232013  0.01534959    -0.81100
O87         O  0.40445642  0.24475102  0.10539499    -0.82900
O88         O  0.45994212  0.12310400  0.48185929    -0.81200
C89         C  0.30614865  0.22740494  0.47449295     0.87000
O90         O  0.39277053  0.17380100  0.46446464    -0.88300
O91         O  0.37373443  0.28528777  0.44814695    -0.88400
O92         O  0.42307750  0.28686741  0.45350936    -0.75500
Mg93       Mg  0.30638048  0.28971010  0.02878789     1.58000
O94         O  0.29506288  0.38922434  0.46666653    -0.82900
H95         H  0.34453934  0.13991104  0.05595132    -0.06600
O96         O  0.42850208  0.22107470  0.01410336    -0.88100
H97         H  0.45945379  0.27876270  0.01579356    -0.06400
H98         H  0.37439339  0.10252436  0.45725414    -0.06600
C99         C  0.43791719  0.26398148  0.02377146     0.87000
C100        C  0.34531231  0.18117058  0.04947611     0.87600
C101        C  0.38482275  0.12952186  0.47299920     0.87600
H102        H  0.39843318  0.34964840  0.43899726    -0.06600
O103        O  0.35835367  0.37312279  0.49680950    -0.75600
Mg104      Mg  0.43842892  0.20361756  0.46819022     1.58000
H105        H  0.37261658  0.38592279  0.03944089    -0.06600
C106        C  0.42511303  0.20999359  0.10710128     0.92600
O107        O  0.45113513  0.10536390  0.03026751    -0.82800
C108        C  0.46454961  0.09571994  0.00549562     0.92600
O109        O  0.29689613  0.30918554  0.07789705    -0.82800
Mg110      Mg  0.33493381  0.33479993  0.45641999     1.58200
O111        O  0.43272431  0.18236550  0.08436047    -0.81100
O112        O  0.33740610  0.24020868  0.39315976    -0.82800
O113        O  0.38054025  0.70438847  0.45216072    -0.88400
C114        C  0.38949397  0.86217080  0.47398687     0.87600
Mg115      Mg  0.34099729  0.65596272  0.46069780     1.58100
O116        O  0.43335535  0.77498389  0.01763097    -0.88100
O117        O  0.42985818  0.70519025  0.45804707    -0.75500
C118        C  0.31277311  0.70689714  0.10346474     0.92700
O119        O  0.32804373  0.79232876  0.45724213    -0.75300
O120        O  0.29840648  0.69269469  0.08008662    -0.82800
Mg121      Mg  0.37253283  0.78010574  0.43160459     1.58000
C122        C  0.42787612  0.78875729  0.11050703     0.92600
O123        O  0.41329785  0.77348272  0.40078054    -0.81100
H124        H  0.46325581  0.71568161  0.02030024    -0.06400
C125        C  0.34901856  0.81634194  0.05095062     0.87500
O126        O  0.36304827  0.62020799  0.50232373    -0.75600
O127        O  0.39830941  0.81789607  0.46604038    -0.88300
O128        O  0.43551961  0.81762162  0.08822759    -0.81100
C129        C  0.46819535  0.90177852  0.50680695     0.92700
C130        C  0.44009828  0.79124733  0.39886383     0.92600
Mg131      Mg  0.38095135  0.71737418  0.07144141     1.58000
O132        O  0.33968851  0.72462972  0.10221507    -0.81100
O133        O  0.42550642  0.70477156  0.04559726    -0.75300
O134        O  0.46414653  0.87272000  0.48363894    -0.81100
O135        O  0.34621026  0.74243862  0.39464027    -0.82900
O136        O  0.28914238  0.62518422  0.01885422    -0.81200
C137        C  0.44181857  0.73183384  0.02776400     0.87000
O138        O  0.35536995  0.67966406  0.03703372    -0.88300
O139        O  0.37377941  0.79328832  0.05092408    -0.88400
O140        O  0.32457701  0.79272653  0.04388719    -0.75500
Mg141      Mg  0.44408973  0.79024414  0.47135521     1.58000
O142        O  0.45497549  0.89260218  0.03178779    -0.82900
H143        H  0.40617033  0.64009788  0.44511737    -0.06600
O144        O  0.32097885  0.72186373  0.48509573    -0.88100
H145        H  0.29028979  0.77986207  0.48224874    -0.06400
H146        H  0.37512995  0.61013183  0.04586625    -0.06600
C147        C  0.31196130  0.76456748  0.47487588     0.87000
C148        C  0.40534943  0.68155951  0.45129196     0.87600
C149        C  0.36459091  0.63548782  0.02939771     0.87600
H150        H  0.34818907  0.85801362  0.05665192    -0.06600
O151        O  0.39181203  0.87729956  0.00097290    -0.75600
Mg152      Mg  0.30980928  0.70762505  0.03098504     1.58000
H153        H  0.37883048  0.88792394  0.45779645    -0.06600
C154        C  0.32623499  0.70649294  0.39292591     0.92600
O155        O  0.30030435  0.60356453  0.47137015    -0.82800
C156        C  0.28590061  0.59541969  0.49580473     0.92600
O157        O  0.45485778  0.80645680  0.42183960    -0.82800
Mg158      Mg  0.41386034  0.84087462  0.04258900     1.58200
O159        O  0.31917602  0.67836616  0.41558104    -0.81100
O160        O  0.40729027  0.75413996  0.10838843    -0.82800
O161        O  0.12390043  0.70863624  0.05200996    -0.88400
C162        C  0.11562475  0.86563143  0.02794985     0.87600
Mg163      Mg  0.16326872  0.65912417  0.04380570     1.58100
O164        O  0.07116102  0.77791050  0.48536503    -0.88100
O165        O  0.07468818  0.70975236  0.04519656    -0.75500
C166        C  0.18997058  0.70361968  0.40000334     0.92700
O167        O  0.17675831  0.79585432  0.04538139    -0.75300
O168        O  0.20512821  0.69175869  0.42327675    -0.82800
Mg169      Mg  0.13223141  0.78599980  0.07113358     1.58000
C170        C  0.07527590  0.78671574  0.39306119     0.92600
O171        O  0.09164642  0.78302711  0.10209085    -0.81100
H172        H  0.04011921  0.72044605  0.48372763    -0.06400
C173        C  0.15501844  0.81558280  0.45083080     0.87500
O174        O  0.14102823  0.62191992  0.00257114    -0.75600
O175        O  0.10639583  0.82200871  0.03637375    -0.88300
O176        O  0.06914595  0.81805832  0.41474543    -0.81100
C177        C  0.03659870  0.90518018  0.49499059     0.92700
C178        C  0.06430648  0.79822648  0.10359061     0.92600
Mg179      Mg  0.12183506  0.71533392  0.43238529     1.58000
O180        O  0.16251457  0.71843163  0.40121817    -0.81100
O181        O  0.07759778  0.70560400  0.45867719    -0.75300
O182        O  0.04023607  0.87626135  0.01819855    -0.81100
O183        O  0.15849744  0.75048087  0.10841956    -0.82900
O184        O  0.21371721  0.62625984  0.48518228    -0.81200
C185        C  0.06180951  0.73481657  0.47592203     0.87000
O186        O  0.14793919  0.67995937  0.46715750    -0.88300
O187        O  0.13019761  0.79284332  0.45132913    -0.88400
O188        O  0.17936682  0.79240933  0.45855820    -0.75500
Mg189      Mg  0.06046114  0.79430894  0.03123129     1.58000
O190        O  0.05048334  0.89605895  0.47032051    -0.82900
H191        H  0.09797107  0.64491631  0.05909540    -0.06600
O192        O  0.18307061  0.72392217  0.01842434    -0.88100
H193        H  0.21441664  0.78081527  0.02062938    -0.06400
H194        H  0.12830463  0.60990026  0.45943508    -0.06600
C195        C  0.19257534  0.76668656  0.02815476     0.87000
C196        C  0.09900650  0.68616636  0.05263887     0.87600
C197        C  0.13899162  0.63608202  0.47544751     0.87600
H198        H  0.15593169  0.85682270  0.44433894    -0.06600
O199        O  0.11364005  0.87961467  0.50075529    -0.75600
Mg200      Mg  0.19372157  0.70804130  0.47245177     1.58000
H201        H  0.12653574  0.89170361  0.04387007    -0.06600
C202        C  0.17798353  0.71393383  0.11088375     0.92600
O203        O  0.20401960  0.60578866  0.03311665    -0.82800
C204        C  0.21749769  0.59691117  0.50817224     0.92600
O205        O  0.04904305  0.81068581  0.08047865    -0.82800
Mg206      Mg  0.09100737  0.84236254  0.45972933     1.58200
O207        O  0.18467895  0.68283866  0.08922084    -0.81100
O208        O  0.09474272  0.74996721  0.39507582    -0.82800
C209        C  0.01233200  0.19356508  0.22196122     0.02200
C210        C  0.48099922  0.18423464  0.22314992     0.02200
C211        C  0.46671537  0.17703208  0.25088666    -0.18300
C212        C  0.48326861  0.18066022  0.27755988     0.02200
C213        C  0.01476406  0.19195310  0.27643625     0.02200
C214        C  0.02898184  0.19792691  0.24848707    -0.18300
H215        H  0.05274888  0.20824263  0.24729378     0.04200
H216        H  0.44246304  0.17062129  0.25178820     0.04200
C217        C  0.48501966  0.82280275  0.22511153     0.02200
C218        C  0.01715645  0.81769532  0.22340455     0.02200
C219        C  0.03403297  0.81494875  0.24991541    -0.18300
C220        C  0.01958908  0.81640972  0.27797091     0.02200
C221        C  0.48772066  0.82164033  0.27965053     0.02200
C222        C  0.47073058  0.82486984  0.25322528    -0.18300
H223        H  0.44623448  0.82653049  0.25452724     0.04200
H224        H  0.05826854  0.80860553  0.24865467     0.04200
C225        C  0.26474207  0.68216946  0.22331931     0.02200
C226        C  0.23285766  0.68290313  0.22587350     0.02200
C227        C  0.21910976  0.68202946  0.25422206    -0.18300
C228        C  0.23689354  0.68158476  0.28016980     0.02200
C229        C  0.26881637  0.68015817  0.27768602     0.02200
C230        C  0.28249139  0.67935651  0.24924629    -0.18300
H231        H  0.30695653  0.67903394  0.24729263     0.04200
H232        H  0.19467278  0.68454117  0.25610598     0.04200
C233        C  0.23294625  0.31800040  0.22097512     0.02200
C234        C  0.26490820  0.31409568  0.22013864     0.02200
C235        C  0.28136564  0.31197211  0.24689950    -0.18300
C236        C  0.26618893  0.31184202  0.27448648     0.02200
C237        C  0.23433131  0.31520402  0.27534879     0.02200
C238        C  0.21794030  0.31961196  0.24867151    -0.18300
H239        H  0.19343517  0.32163560  0.24945856     0.04200
H240        H  0.30579141  0.30782524  0.24620910     0.04200
C241        C  0.19061206  0.65616484  0.15389196    -0.20400
C242        C  0.19197146  0.70646577  0.14048258    -0.06900
C243        C  0.20393738  0.74977672  0.15674622     0.13900
C244        C  0.21487031  0.74146218  0.18574641    -0.20400
C245        C  0.21436340  0.69102546  0.19876475    -0.06900
C246        C  0.20142354  0.64807258  0.18311731     0.13900
C247        C  0.19929790  0.59394813  0.19719468    -0.23800
H248        H  0.18061181  0.62340844  0.14165389     0.15200
H249        H  0.22517456  0.77398711  0.19793527     0.15200
C250        C  0.20655803  0.80429613  0.14317707    -0.23700
H251        H  0.18872615  0.56471386  0.18178796     0.05400
H252        H  0.18528468  0.59629965  0.21789346     0.08700
H253        H  0.22214482  0.57918819  0.20316887     0.08700
H254        H  0.18374766  0.82096189  0.13885008     0.08700
H255        H  0.21955495  0.80201624  0.12183127     0.08700
H256        H  0.21849462  0.83226820  0.15835084     0.05400
C257        C  0.20003005  0.64962650  0.35493124    -0.20400
C258        C  0.20353624  0.69803277  0.37008436    -0.06900
C259        C  0.21597276  0.74193074  0.35499299     0.13900
C260        C  0.22526267  0.73615525  0.32506099    -0.20400
C261        C  0.22234932  0.68746379  0.31000452    -0.06900
C262        C  0.20922680  0.64384782  0.32491649     0.13900
C263        C  0.20511882  0.59135733  0.30924299    -0.23800
H264        H  0.18961130  0.61654273  0.36651086     0.15200
H265        H  0.23539560  0.76944089  0.31346602     0.15200
C266        C  0.21945106  0.79465634  0.37052776    -0.23700
H267        H  0.19484377  0.56130182  0.32433084     0.05400
H268        H  0.22729311  0.57589804  0.30136061     0.08700
H269        H  0.18998973  0.59645088  0.28963097     0.08700
H270        H  0.23420248  0.79005022  0.39047153     0.08700
H271        H  0.19692997  0.80958820  0.37782679     0.08700
H272        H  0.22982632  0.82474127  0.35552354     0.05400
C273        C  0.05856708  0.84812828  0.15082854    -0.20400
C274        C  0.05110891  0.80326047  0.13369306    -0.06900
C275        C  0.03577672  0.76062971  0.14721237     0.13900
C276        C  0.02713148  0.76470853  0.17739539    -0.20400
C277        C  0.03255727  0.81114003  0.19398116    -0.06900
C278        C  0.04977748  0.85233190  0.18105481     0.13900
C279        C  0.55946062  0.89984405  0.19897873    -0.23800
H280        H  0.07192495  0.87938855  0.14066780     0.15200
H281        H  0.01538773  0.73200131  0.18796394     0.15200
C282        C  0.02863597  0.71095801  0.12981018    -0.23700
H283        H  0.57196542  0.92890972  0.18495490     0.05400
H284        H  0.07515947  0.88625846  0.21739348     0.08700
H285        H  0.53986122  0.92042993  0.20929117     0.08700
H286        H  0.04993431  0.69236083  0.12163505     0.08700
H287        H  0.01414046  0.72096188  0.11032341     0.08700
H288        H  0.01636964  0.68153019  0.14380549     0.05400
C289        C  0.03115943  0.76087109  0.32225126    -0.20400
C290        C  0.03736716  0.80686628  0.30566008    -0.06900
C291        C  0.05759085  0.84496130  0.31734451     0.13900
C292        C  0.06855891  0.83858872  0.34667357    -0.20400
C293        C  0.06058534  0.79420190  0.36390437    -0.06900
C294        C  0.04195521  0.75461329  0.35149164     0.13900
C295        C  0.03256904  0.70677198  0.36944162    -0.23800
H296        H  0.51773713  0.72969246  0.31200671     0.15200
H297        H  0.08410620  0.86751923  0.35591433     0.15200
C298        C  0.06837401  0.89121367  0.29877405    -0.23700
H299        H  0.52120613  0.71815749  0.38956978     0.05400
H300        H  0.05277115  0.68306053  0.37560727     0.08700
H301        H  0.01699461  0.68071838  0.35660979     0.08700
H302        H  0.04909097  0.91471322  0.29019573     0.08700
H303        H  0.08172818  0.87635903  0.27936346     0.08700
H304        H  0.08316194  0.91813370  0.31193624     0.05400
C305        C  0.31415218  0.73765200  0.34163209    -0.20400
C306        C  0.31175765  0.69726438  0.36327788    -0.06900
C307        C  0.29766798  0.64874984  0.35515546     0.13900
C308        C  0.28623563  0.64265977  0.32601097    -0.20400
C309        C  0.28764334  0.68394168  0.30506017    -0.06900
C310        C  0.30222097  0.73170756  0.31278319     0.13900
C311        C  0.30432211  0.77727133  0.29105034    -0.23800
H312        H  0.32504642  0.77475605  0.34739910     0.15200
H313        H  0.27497073  0.60615726  0.31982598     0.15200
C314        C  0.29443073  0.60306252  0.37668590    -0.23700
H315        H  0.31549631  0.81237369  0.30122074     0.05400
H316        H  0.28133891  0.78944461  0.28380888     0.08700
H317        H  0.31787088  0.76521667  0.27116418     0.08700
H318        H  0.28003044  0.61502334  0.39602801     0.08700
H319        H  0.31708165  0.59033742  0.38464852     0.08700
H320        H  0.28348519  0.56820007  0.36599400     0.05400
C321        C  0.30235308  0.74203089  0.15439549    -0.20400
C322        C  0.29897774  0.70075111  0.13349688    -0.06900
C323        C  0.28572061  0.65245643  0.14274686     0.13900
C324        C  0.27670998  0.64648599  0.17276175    -0.20400
C325        C  0.27934334  0.68821171  0.19345451    -0.06900
C326        C  0.29197377  0.73696379  0.18401527     0.13900
C327        C  0.29382226  0.78505851  0.20407704    -0.27000
H328        H  0.31263822  0.77902886  0.14736246     0.15200
H329        H  0.26685873  0.60937704  0.18001377     0.15200
C330        C  0.28170493  0.60661783  0.12136048    -0.23700
H331        H  0.28161645  0.81859978  0.19345767     0.05400
H332        H  0.31789453  0.79635042  0.20719448     0.08700
H333        H  0.28350300  0.77878686  0.22643227     0.08700
H334        H  0.30394809  0.59490814  0.11170659     0.08700
H335        H  0.26608378  0.61811786  0.10303980     0.08700
H336        H  0.27186922  0.57142394  0.13271462     0.05400
C337        C  0.46267607  0.84840934  0.35979790    -0.20400
C338        C  0.45284603  0.79781960  0.36845514    -0.06900
C339        C  0.45150534  0.75674730  0.34681390     0.13900
C340        C  0.46076755  0.76703740  0.31725632    -0.20400
C341        C  0.47187042  0.81697155  0.30897001    -0.06900
C342        C  0.47173578  0.85867454  0.33014668     0.13900
C343        C  0.98078787  0.91457426  0.32122579    -0.23800
H344        H  0.46239565  0.88039338  0.37610189     0.15200
H345        H  0.46093627  0.73520699  0.30085158     0.15200
C346        C  0.44161727  0.70145279  0.35505591    -0.23700
H347        H  0.97848463  0.94281226  0.34027014     0.05400
H348        H  0.96615787  0.92861786  0.30266129     0.08700
H349        H  0.00460491  0.91505504  0.31376515     0.08700
H350        H  0.41747940  0.70141976  0.36201057     0.08700
H351        H  0.45580747  0.68637676  0.37370202     0.08700
H352        H  0.44397768  0.67358287  0.33584513     0.05400
C353        C  0.44983030  0.84886479  0.14899338    -0.20400
C354        C  0.44199212  0.79706041  0.14029737    -0.06900
C355        C  0.44556501  0.75507473  0.16115687     0.13900
C356        C  0.45712798  0.76605455  0.18972144    -0.20400
C357        C  0.46638843  0.81718435  0.19768746    -0.06900
C358        C  0.46174430  0.85944480  0.17757263     0.13900
C359        C  0.46872932  0.91564211  0.18647041    -0.23800
H360        H  0.44620303  0.88133873  0.13353579     0.15200
H361        H  0.96097800  0.73357549  0.20539738     0.15200
C362        C  0.43883351  0.69809970  0.15321539    -0.23700
H363        H  0.46277304  0.94415179  0.16847504     0.05400
H364        H  0.49312619  0.91977506  0.19108543     0.08700
H365        H  0.45564818  0.92632780  0.20694079     0.08700
H366        H  0.45130101  0.68681480  0.13246801     0.08700
H367        H  0.41416102  0.69245278  0.14998279     0.08700
H368        H  0.94619721  0.66989774  0.17136345     0.05400
C369        C  0.29516252  0.25319294  0.14852919    -0.20400
C370        C  0.29894776  0.29864819  0.13091452    -0.06900
C371        C  0.29532057  0.34929335  0.14395464     0.13900
C372        C  0.28679898  0.35321111  0.17419234    -0.20400
C373        C  0.28080264  0.30769527  0.19116854    -0.06900
C374        C  0.28589573  0.25701953  0.17852047     0.13900
C375        C  0.28171263  0.20635785  0.19589550    -0.23800
H376        H  0.29931982  0.21442051  0.13874437     0.15200
H377        H  0.28337139  0.39192115  0.18428415     0.15200
C378        C  0.30091206  0.39907829  0.12616976    -0.23700
H379        H  0.30344752  0.18421209  0.19634630     0.05400
H380        H  0.26438752  0.18139823  0.18471745     0.08700
H381        H  0.27450136  0.21310971  0.21943699     0.08700
H382        H  0.28511363  0.40081248  0.10689497     0.08700
H383        H  0.32458854  0.39939999  0.11769747     0.08700
H384        H  0.29736696  0.43528422  0.13999590     0.05400
C385        C  0.30509484  0.33616263  0.34871237    -0.20400
C386        C  0.30398704  0.28520669  0.36124991    -0.06900
C387        C  0.29238711  0.24258595  0.34417663     0.13900
C388        C  0.28237382  0.25204588  0.31490306    -0.20400
C389        C  0.28311055  0.30308303  0.30255418    -0.06900
C390        C  0.29484885  0.34565948  0.31950634     0.13900
C391        C  0.29636500  0.40153063  0.30770012    -0.23800
H392        H  0.31447631  0.36869498  0.36162465     0.15200
H393        H  0.27273791  0.21988740  0.30190538     0.15200
C394        C  0.28915807  0.18772445  0.35714117    -0.23700
H395        H  0.28278560  0.42814889  0.32239743     0.05400
H396        H  0.28767711  0.40513983  0.28449850     0.08700
H397        H  0.32025097  0.41521126  0.30772816     0.08700
H398        H  0.27547631  0.18956929  0.37808031     0.08700
H399        H  0.31174558  0.17068559  0.36206843     0.08700
H400        H  0.27760854  0.16035573  0.34133099     0.05400
C401        C  0.43510870  0.23985431  0.15926589    -0.20400
C402        C  0.43954667  0.20108976  0.13683177    -0.06900
C403        C  0.45538673  0.15387602  0.14430648     0.13900
C404        C  0.46650823  0.14754579  0.17354604    -0.20400
C405        C  0.46286048  0.18721002  0.19532020    -0.06900
C406        C  0.44654405  0.23351908  0.18828837     0.13900
C407        C  0.44193983  0.27705662  0.21113163    -0.23800
H408        H  0.42284151  0.27588322  0.15406961     0.15200
H409        H  0.97948374  0.11202088  0.17902163     0.15200
C410        C  0.46078322  0.10972910  0.12201791    -0.23700
H411        H  0.42926527  0.31113413  0.20164721     0.05400
H412        H  0.46414317  0.29187956  0.21913217     0.08700
H413        H  0.42881725  0.26166941  0.23051826     0.08700
H414        H  0.47488896  0.12432223  0.10310017     0.08700
H415        H  0.43882226  0.09459678  0.11352857     0.08700
H416        H  0.97370854  0.07604406  0.13189172     0.05400
C417        C  0.46064859  0.14767737  0.35737806    -0.20400
C418        C  0.44520472  0.19418225  0.36550085    -0.06900
C419        C  0.43929218  0.23322244  0.34347619     0.13900
C420        C  0.45009420  0.22554596  0.31421013    -0.20400
C421        C  0.46673743  0.18018198  0.30650413    -0.06900
C422        C  0.47090498  0.13968456  0.32789098     0.13900
C423        C  0.98563581  0.08755042  0.31965101    -0.23800
H424        H  0.46394600  0.11688141  0.37397468     0.15200
H425        H  0.44699146  0.25637623  0.29758041     0.15200
C426        C  0.42284327  0.28410835  0.35088561    -0.23700
H427        H  0.98617905  0.05972389  0.33891800     0.05400
H428        H  0.00915196  0.09379711  0.31208762     0.08700
H429        H  0.97261422  0.06863076  0.30126024     0.08700
H430        H  0.43433910  0.30461513  0.36974091     0.08700
H431        H  0.39897572  0.27575433  0.35708121     0.08700
H432        H  0.42244182  0.31161477  0.33146453     0.05400
C433        C  0.21931783  0.35058794  0.32494564    -0.20400
C434        C  0.21821991  0.30885980  0.30418514    -0.06900
C435        C  0.20629518  0.25936111  0.31292066     0.13900
C436        C  0.19552525  0.25307209  0.34219378    -0.20400
C437        C  0.19676829  0.29451933  0.36335681    -0.06900
C438        C  0.20910914  0.34406898  0.35455613     0.13900
C439        C  0.21133784  0.39057731  0.37575457    -0.23800
H440        H  0.22902646  0.38810165  0.31805069     0.15200
H441        H  0.18624506  0.21490599  0.34855160     0.15200
C442        C  0.20546907  0.21171753  0.29239444    -0.23700
H443        H  0.22113050  0.42603576  0.36462544     0.05400
H444        H  0.22629968  0.38036599  0.39485009     0.08700
H445        H  0.18847221  0.40155474  0.38415236     0.08700
H446        H  0.21576786  0.21911746  0.27013815     0.08700
H447        H  0.18162299  0.19927017  0.28897628     0.08700
H448        H  0.21812636  0.17850085  0.30281507     0.05400
C449        C  0.18825073  0.26682685  0.15455172    -0.20400
C450        C  0.19237618  0.30835953  0.13406382    -0.06900
C451        C  0.20687553  0.35544889  0.14346981     0.13900
C452        C  0.21731877  0.35934073  0.17304335    -0.20400
C453        C  0.21524022  0.31633230  0.19279524    -0.06900
C454        C  0.19981097  0.26998875  0.18375892     0.13900
C455        C  0.19582443  0.22364431  0.20465734    -0.23800
H456        H  0.17647850  0.23128271  0.14742491     0.15200
H457        H  0.22840351  0.39533612  0.18046356     0.15200
C458        C  0.21110522  0.40185492  0.12262698    -0.23700
H459        H  0.18414876  0.18998203  0.19352920     0.05400
H460        H  0.18193980  0.23582363  0.22429482     0.08700
H461        H  0.21815274  0.20939098  0.21251814     0.08700
H462        H  0.18879879  0.41521280  0.11406819     0.08700
H463        H  0.22586727  0.39024509  0.10350059     0.08700
H464        H  0.22201572  0.43595678  0.13410728     0.05400
C465        C  0.06661093  0.16965271  0.34298621    -0.20400
C466        C  0.05414313  0.20569834  0.36366347    -0.06900
C467        C  0.03213538  0.24233376  0.35417130     0.13900
C468        C  0.02224505  0.24068866  0.32437446    -0.20400
C469        C  0.03221538  0.20090789  0.30450252    -0.06900
C470        C  0.05586906  0.16661700  0.31342236     0.13900
C471        C  0.06952111  0.12631973  0.29222566    -0.23800
H472        H  0.08447428  0.14313504  0.35021464     0.15200
H473        H  0.50558169  0.26914644  0.31690500     0.15200
C474        C  0.01911247  0.28306947  0.37538451    -0.23700
H475        H  0.08633900  0.10072251  0.30369556     0.05400
H476        H  0.08145102  0.14684313  0.27367203     0.08700
H477        H  0.05177374  0.10028671  0.28266398     0.08700
H478        H  0.03752442  0.30849652  0.38430355     0.08700
H479        H  0.00747813  0.26290799  0.39429657     0.08700
H480        H  0.50247586  0.30925173  0.36408308     0.05400
C481        C  0.02273899  0.25024424  0.17793334    -0.20400
C482        C  0.02743112  0.20201329  0.19277417    -0.06900
C483        C  0.04275589  0.16027003  0.17808166     0.13900
C484        C  0.05259751  0.16742153  0.14845097    -0.20400
C485        C  0.04805859  0.21574239  0.13363173    -0.06900
C486        C  0.03297910  0.25771732  0.14847272     0.13900
C487        C  0.02698820  0.30976134  0.13304981    -0.23800
H488        H  0.51120850  0.28226577  0.18966259     0.15200
H489        H  0.06488071  0.13586760  0.13715888     0.15200
C490        C  0.04874235  0.10840003  0.19370543    -0.23700
H491        H  0.51444780  0.33789578  0.14799744     0.05400
H492        H  0.01391484  0.30267570  0.11219168     0.08700
H493        H  0.04865953  0.32960156  0.12737515     0.08700
H494        H  0.02711385  0.08994816  0.20086416     0.08700
H495        H  0.06296679  0.11546464  0.21380130     0.08700
H496        H  0.06081969  0.07988039  0.17885502     0.05400
C497        C  0.23553496  0.54783158  0.00488292     0.02200
C498        C  0.26692250  0.54716111  0.99794596     0.02200
C499        C  0.28138222  0.49814526  0.99320636    -0.18300
C500        C  0.26541884  0.45013632  0.49465139     0.02200
C501        C  0.23387879  0.45114362  0.49981170     0.02200
C502        C  0.21949771  0.49974269  0.50552745    -0.18300
H503        H  0.19520941  0.50033414  0.50930087     0.04200
H504        H  0.30557164  0.49728166  0.98887337     0.04200
C505        C  0.01732439  0.95308200  0.49729387     0.02200
C506        C  0.48590782  0.95125423  0.50391250     0.02200
C507        C  0.46972265  0.99888721  0.50667910    -0.18300
C508        C  0.48389835  0.04824983  0.50363027     0.02200
C509        C  0.01544968  0.05041908  0.49867189     0.02200
C510        C  0.03164957  0.00278654  0.49500416    -0.18300
H511        H  0.05596275  0.00438882  0.49156372     0.04200
H512        H  0.44549171  0.99751385  0.51076629     0.04200
O513        O  0.12381502  0.29372963  0.94818649    -0.88400
C514        C  0.11307743  0.13858661  0.97356245     0.87600
Mg515      Mg  0.16316554  0.34150170  0.95843545     1.58100
O516        O  0.06626116  0.22860028  0.51244158    -0.88100
O517        O  0.07424687  0.29483326  0.95274864    -0.75500
C518        C  0.17947749  0.30285084  0.60378222     0.92700
O519        O  0.17552009  0.20535379  0.95855898    -0.75300
O520        O  0.19552556  0.31401156  0.58093175    -0.82800
Mg521      Mg  0.13285819  0.21586702  0.93007149     1.58000
C522        C  0.06358548  0.22354634  0.60484049     0.92600
O523        O  0.09424190  0.21954829  0.89692385    -0.81100
H524        H  0.03538299  0.28653982  0.51164269    -0.06400
C525        C  0.14669413  0.18993616  0.55261485     0.87500
O526        O  0.13809847  0.38136758  0.99749260    -0.75600
O527        O  0.10468280  0.18182168  0.96373189    -0.88300
O528        O  0.05838740  0.19201317  0.58303372    -0.81100
C529        C  0.03295220  0.10015499  0.50145284     0.92700
C530        C  0.06655714  0.20725126  0.89416411     0.92600
Mg531      Mg  0.11335247  0.29170106  0.56789355     1.58000
O532        O  0.15214514  0.28758243  0.60158807    -0.81100
O533        O  0.07101398  0.30155407  0.53890777    -0.75300
O534        O  0.03885395  0.12742737  0.97796829    -0.81100
O535        O  0.16142551  0.25057189  0.89407441    -0.82900
O536        O  0.20810184  0.37692474  0.52001473    -0.81200
C537        C  0.05641277  0.27209872  0.52090999     0.87000
O538        O  0.14170414  0.32489187  0.53415805    -0.88300
O539        O  0.12221491  0.21346684  0.55031904    -0.88400
O540        O  0.17173846  0.21198533  0.54603732    -0.75500
Mg541      Mg  0.05875700  0.21070205  0.96619875     1.58000
O542        O  0.04335159  0.11229667  0.52725161    -0.82900
H543        H  0.09910952  0.35836253  0.93955885    -0.06600
O544        O  0.17981373  0.27729908  0.98579504    -0.88100
H545        H  0.21105022  0.21992056  0.98605652    -0.06400
H546        H  0.12196659  0.39570031  0.53939885    -0.06600
C547        C  0.18993236  0.23428338  0.97694652     0.87000
C548        C  0.09925437  0.31719589  0.94625879     0.87600
C549        C  0.13372388  0.36852779  0.52459054     0.87600
H550        H  0.14672938  0.14897239  0.55969868    -0.06600
O551        O  0.10878158  0.12599279  0.50077243    -0.75600
Mg552      Mg  0.18732297  0.29553875  0.53193069     1.58000
H553        H  0.12513471  0.11155058  0.95891323    -0.06600
C554        C  0.18171323  0.28599852  0.89277628     0.92600
O555        O  0.20388286  0.39278600  0.97089519    -0.82800
C556        C  0.21469177  0.40369257  0.49665768     0.92600
O557        O  0.04991947  0.19548788  0.91655683    -0.82800
Mg558      Mg  0.08337349  0.16505707  0.53991501     1.58200
O559        O  0.18815923  0.31473430  0.91541647    -0.81100
O560        O  0.08365705  0.25929561  0.60368671    -0.82800
O561        O  0.37009623  0.20381494  0.54821009    -0.88400
C562        C  0.36127418  0.35952173  0.52397590     0.87600
Mg563      Mg  0.40999713  0.15622296  0.54030676     1.58100
O564        O  0.31537252  0.27128463  0.98292719    -0.88100
O565        O  0.32064324  0.20479386  0.54293712    -0.75500
C566        C  0.43263465  0.19826787  0.89605798     0.92700
O567        O  0.42235323  0.29223794  0.54179673    -0.75300
O568        O  0.44868629  0.18613152  0.91874118    -0.82800
Mg569      Mg  0.37802105  0.28012600  0.56783195     1.58000
C570        C  0.31810332  0.27710901  0.89073670     0.92600
O571        O  0.33743567  0.27175665  0.59845893    -0.81100
H572        H  0.28474468  0.21305031  0.98300968    -0.06400
C573        C  0.39824703  0.30878802  0.94624067     0.87500
O574        O  0.38761777  0.11593696  0.50014311    -0.75600
O575        O  0.35227223  0.31604527  0.53284889    -0.88300
O576        O  0.31235423  0.30927437  0.91213009    -0.81100
C577        C  0.28292075  0.40044490  0.49189153     0.92700
C578        C  0.31135629  0.29242705  0.60059168     0.92600
Mg579      Mg  0.36535985  0.20733306  0.93021785     1.58000
O580        O  0.40502668  0.21138746  0.89849939    -0.81100
O581        O  0.32186409  0.19744147  0.95759161    -0.75300
O582        O  0.28718672  0.37232577  0.51534400    -0.81100
O583        O  0.40438945  0.24469390  0.60541143    -0.82900
O584        O  0.45995763  0.12309762  0.98183742    -0.81200
C585        C  0.30616534  0.22742224  0.97449423     0.87000
O586        O  0.39277830  0.17381016  0.96445472    -0.88300
O587        O  0.37374502  0.28529558  0.94812694    -0.88400
O588        O  0.42308946  0.28686470  0.95348314    -0.75500
Mg589      Mg  0.30634309  0.28970019  0.52878458     1.58000
O590        O  0.29507254  0.38922184  0.96667073    -0.82900
H591        H  0.34448661  0.13987171  0.55593016    -0.06600
O592        O  0.42846867  0.22105980  0.51412368    -0.88100
H593        H  0.45941604  0.27875337  0.51583433    -0.06400
H594        H  0.37439001  0.10253577  0.95726593    -0.06600
C595        C  0.43787746  0.26396386  0.52380223     0.87000
C596        C  0.34526376  0.18113483  0.54946257     0.87600
C597        C  0.38483014  0.12953822  0.97300108     0.87600
H598        H  0.39844776  0.34964826  0.93896977    -0.06600
O599        O  0.35837805  0.37314108  0.99679103    -0.75600
Mg600      Mg  0.43844214  0.20361502  0.96816802     1.58000
H601        H  0.37257795  0.38588105  0.53946649    -0.06600
C602        C  0.42505772  0.20995778  0.60711183     0.92600
O603        O  0.45110058  0.10535081  0.53028397    -0.82800
C604        C  0.46452551  0.09571965  0.50551631     0.92600
O605        O  0.29686224  0.30918701  0.57789438    -0.82800
Mg606      Mg  0.33494650  0.33480742  0.95641208     1.58200
O607        O  0.43267355  0.18233919  0.58436926    -0.81100
O608        O  0.33739857  0.24021526  0.89314356    -0.82800
O609        O  0.38058456  0.70433348  0.95219656    -0.88400
C610        C  0.38951941  0.86213807  0.97396247     0.87600
Mg611      Mg  0.34103924  0.65591192  0.96073214     1.58100
O612        O  0.43335202  0.77497132  0.51760581    -0.88100
O613        O  0.42990035  0.70514140  0.95809176    -0.75500
C614        C  0.31280413  0.70683352  0.60345720     0.92700
O615        O  0.32808610  0.79227026  0.95723176    -0.75300
O616        O  0.29842177  0.69266934  0.58008138    -0.82800
Mg617      Mg  0.37258381  0.78002534  0.93161072     1.58000
C618        C  0.42791809  0.78861841  0.61049327     0.92600
O619        O  0.41336179  0.77337594  0.90080079    -0.81100
H620        H  0.46325392  0.71566591  0.52023778    -0.06400
C621        C  0.34903558  0.81631092  0.55096521     0.87500
O622        O  0.36307540  0.62019849  0.00237788    -0.75600
O623        O  0.39834409  0.81785737  0.96603731    -0.88300
O624        O  0.43554722  0.81752427  0.58822561    -0.81100
C625        C  0.46819916  0.90177943  0.00680367     0.92700
C626        C  0.44016242  0.79114380  0.89889039     0.92600
Mg627      Mg  0.38097207  0.71730194  0.57141086     1.58000
O628        O  0.33972674  0.72452915  0.60220058    -0.81100
O629        O  0.42551443  0.70472156  0.54554420    -0.75300
O630        O  0.46416876  0.87268928  0.98364607    -0.81100
O631        O  0.34627889  0.74231514  0.89465631    -0.82900
O632        O  0.28913259  0.62518948  0.51883749    -0.81200
C633        C  0.44181977  0.73180817  0.52771708     0.87000
O634        O  0.35536986  0.67965076  0.53699762    -0.88300
O635        O  0.37379495  0.79325082  0.55093228    -0.88400
O636        O  0.32459098  0.79271003  0.54389569    -0.75500
Mg637      Mg  0.44412037  0.79020878  0.97138120     1.58000
O638        O  0.45499062  0.89256590  0.53179678    -0.82900
H639        H  0.40621610  0.64003786  0.94517341    -0.06600
O640        O  0.32100555  0.72183130  0.98510342    -0.88100
H641        H  0.29032323  0.77983591  0.98223021    -0.06400
H642        H  0.37512389  0.61010264  0.54580335    -0.06600
C643        C  0.31199564  0.76452894  0.97486871     0.87000
C644        C  0.40539363  0.68150413  0.95133794     0.87600
C645        C  0.36458023  0.63547628  0.52934622     0.87600
H646        H  0.34821053  0.85797908  0.55667567    -0.06600
O647        O  0.39180958  0.87730556  0.50100047    -0.75600
Mg648      Mg  0.30980696  0.70762433  0.53097865     1.58000
H649        H  0.37886465  0.88787053  0.95775601    -0.06600
C650        C  0.32630276  0.70637220  0.89294176     0.92600
O651        O  0.30034425  0.60352336  0.97139939    -0.82800
C652        C  0.28592357  0.59539975  0.99582610     0.92600
O653        O  0.45491230  0.80637864  0.92186655    -0.82800
Mg654      Mg  0.41387472  0.84083570  0.54259791     1.58200
O655        O  0.31923223  0.67826683  0.91560145    -0.81100
O656        O  0.40733453  0.75399759  0.60836693    -0.82800
O657        O  0.12393770  0.70869668  0.55204088    -0.88400
C658        C  0.11565978  0.86567585  0.52794026     0.87600
Mg659      Mg  0.16329201  0.65917418  0.54381991     1.58100
O660        O  0.07115083  0.77786985  0.98534885    -0.88100
O661        O  0.07472653  0.70980636  0.54521845    -0.75500
C662        C  0.19003786  0.70363852  0.90002010     0.92700
O663        O  0.17680453  0.79589519  0.54536919    -0.75300
O664        O  0.20519203  0.69180340  0.92330020    -0.82800
Mg665      Mg  0.13228538  0.78607387  0.57114073     1.58000
C666        C  0.07531790  0.78667669  0.89305730     0.92600
O667        O  0.09170778  0.78313382  0.60210560    -0.81100
H668        H  0.04014391  0.72034837  0.98370455    -0.06400
C669        C  0.15503496  0.81556983  0.95085225     0.87500
O670        O  0.14101710  0.62197224  0.50259943    -0.75600
O671        O  0.10643523  0.82205794  0.53637739    -0.88300
O672        O  0.06917549  0.81801550  0.91473956    -0.81100
C673        C  0.03658843  0.90516142  0.99496849     0.92700
C674        C  0.06436125  0.79829597  0.60360602     0.92600
Mg675      Mg  0.12188027  0.71531131  0.93238223     1.58000
O676        O  0.16257442  0.71841639  0.90122424    -0.81100
O677        O  0.07763896  0.70556272  0.95866820    -0.75300
O678        O  0.04026285  0.87629126  0.51822176    -0.81100
O679        O  0.15856872  0.75057187  0.60843100    -0.82900
O680        O  0.21375615  0.62626737  0.98520272    -0.81200
C681        C  0.06182877  0.73475493  0.97590558     0.87000
O682        O  0.14797869  0.67992968  0.96714830    -0.88300
O683        O  0.13021824  0.79281657  0.95134238    -0.88400
O684        O  0.17938556  0.79240705  0.95858250    -0.75500
Mg685      Mg  0.06049583  0.79435340  0.53125035     1.58000
O686        O  0.05048495  0.89603727  0.97030443    -0.82900
H687        H  0.09800795  0.64497972  0.55913162    -0.06600
O688        O  0.18307936  0.72395349  0.51841314    -0.88100
H689        H  0.21444457  0.78081724  0.52059673    -0.06400
H690        H  0.12836636  0.60986345  0.95939096    -0.06600
C691        C  0.19260309  0.76671087  0.52813483     0.87000
C692        C  0.09904363  0.68622753  0.55267025     0.87600
C693        C  0.13903190  0.63604131  0.97541960     0.87600
H694        H  0.15594233  0.85681240  0.94436491    -0.06600
O695        O  0.11362532  0.87957990  0.00076525    -0.75600
Mg696      Mg  0.19375092  0.70804323  0.97247117     1.58000
H697        H  0.12658305  0.89175404  0.54384906    -0.06600
C698        C  0.17804723  0.71400924  0.61089314     0.92600
O699        O  0.20403056  0.60582075  0.53311148    -0.82800
C700        C  0.21751521  0.59690266  0.00818978     0.92600
O701        O  0.04908983  0.81073018  0.58049563    -0.82800
Mg702      Mg  0.09101559  0.84232835  0.95972841     1.58200
O703        O  0.18472646  0.68289896  0.58923086    -0.81100
O704        O  0.09479340  0.74994363  0.89507469    -0.82800
C705        C  0.01233112  0.19356619  0.72195335     0.02200
C706        C  0.48099020  0.18425640  0.72314084     0.02200
C707        C  0.46670431  0.17704626  0.75087461    -0.18300
C708        C  0.48325785  0.18065182  0.77754801     0.02200
C709        C  0.01476288  0.19193735  0.77642698     0.02200
C710        C  0.02898128  0.19791787  0.74847926    -0.18300
H711        H  0.05274867  0.20823227  0.74728721     0.04200
H712        H  0.44245078  0.17064782  0.75177407     0.04200
C713        C  0.48505085  0.82255694  0.72511767     0.02200
C714        C  0.01718365  0.81759709  0.72341184     0.02200
C715        C  0.03406442  0.81489623  0.74992062    -0.18300
C716        C  0.01962129  0.81632103  0.77797562     0.02200
C717        C  0.48775756  0.82140839  0.77965604     0.02200
C718        C  0.47076048  0.82457401  0.75323240    -0.18300
H719        H  0.44626304  0.82615876  0.75453637     0.04200
H720        H  0.05830543  0.80861756  0.74865882     0.04200
C721        C  0.26481388  0.68212150  0.72332755     0.02200
C722        C  0.23293063  0.68296712  0.72588852     0.02200
C723        C  0.21918985  0.68212882  0.75424163    -0.18300
C724        C  0.23697981  0.68161136  0.78018627     0.02200
C725        C  0.26890080  0.68006986  0.77769413     0.02200
C726        C  0.28256662  0.67922839  0.74924998    -0.18300
H727        H  0.30703079  0.67881667  0.74728931     0.04200
H728        H  0.19475610  0.68471791  0.75613187     0.04200
C729        C  0.23293892  0.31814418  0.72097210     0.02200
C730        C  0.26489958  0.31421328  0.72014086     0.02200
C731        C  0.28135341  0.31210010  0.74690462    -0.18300
C732        C  0.26617387  0.31200014  0.77449057     0.02200
C733        C  0.23431670  0.31539855  0.77534809     0.02200
C734        C  0.21793014  0.31979754  0.74866623    -0.18300
H735        H  0.19342492  0.32182844  0.74944831     0.04200
H736        H  0.30577778  0.30792591  0.74621754     0.04200
C737        C  0.19061889  0.65627283  0.65393490    -0.20400
C738        C  0.19204327  0.70653923  0.64049055    -0.06900
C739        C  0.20407749  0.74982936  0.65672108     0.13900
C740        C  0.21500977  0.74152875  0.68572453    -0.20400
C741        C  0.21443611  0.69112149  0.69877915    -0.06900
C742        C  0.20143160  0.64819297  0.68316201     0.13900
C743        C  0.19924593  0.59410110  0.69727050    -0.23800
H744        H  0.18056880  0.62353462  0.64172184     0.15200
H745        H  0.22536616  0.77403395  0.69788630     0.15200
C746        C  0.20676954  0.80430505  0.64311094    -0.23700
H747        H  0.18862868  0.56488156  0.68188592     0.05400
H748        H  0.18524768  0.59654064  0.71797609     0.08700
H749        H  0.22207887  0.57926479  0.70323851     0.08700
H750        H  0.18398071  0.82104910  0.63876944     0.08700
H751        H  0.21976340  0.80192179  0.62176675     0.08700
H752        H  0.21874255  0.83226445  0.65826382     0.05400
C753        C  0.20002412  0.64969798  0.85491336    -0.20400
C754        C  0.20361584  0.69804589  0.87010577    -0.06900
C755        C  0.21616400  0.74189551  0.85506046     0.13900
C756        C  0.22545349  0.73613871  0.82512620    -0.20400
C757        C  0.22244687  0.68750362  0.81002764    -0.06900
C758        C  0.20923786  0.64392811  0.82490334     0.13900
C759        C  0.20506622  0.59148077  0.80920046    -0.23800
H760        H  0.18953331  0.61664967  0.86646179     0.15200
H761        H  0.23566127  0.76938959  0.81356314     0.15200
C762        C  0.21975743  0.79455016  0.87064510    -0.23700
H763        H  0.19473223  0.56144898  0.82426414     0.05400
H764        H  0.22722684  0.57593402  0.80133392     0.08700
H765        H  0.18996406  0.59667049  0.78957643     0.08700
H766        H  0.23449094  0.78978112  0.89058959     0.08700
H767        H  0.19726792  0.80961850  0.87795034     0.08700
H768        H  0.23020801  0.82460486  0.85567256     0.05400
C769        C  0.05858415  0.84816493  0.65084996    -0.20400
C770        C  0.05115743  0.80329254  0.63370561    -0.06900
C771        C  0.03584746  0.76062499  0.64721183     0.13900
C772        C  0.02719564  0.76466660  0.67739345    -0.20400
C773        C  0.03259030  0.81109716  0.69398926    -0.06900
C774        C  0.04978636  0.85233251  0.68107502     0.13900
C775        C  0.55938775  0.89989573  0.69897591    -0.23800
H776        H  0.07192417  0.87945686  0.64069738     0.15200
H777        H  0.01547078  0.73192986  0.68795319     0.15200
C778        C  0.02873695  0.71095320  0.62979691    -0.23700
H779        H  0.57184796  0.92901308  0.68494760     0.05400
H780        H  0.07514529  0.88628975  0.71742078     0.08700
H781        H  0.53976706  0.92040152  0.70929833     0.08700
H782        H  0.05004674  0.69239805  0.62162045     0.08700
H783        H  0.01423865  0.72094634  0.61031042     0.08700
H784        H  0.01648487  0.68149426  0.64378339     0.05400
C785        C  0.03123998  0.76077342  0.82223396    -0.20400
C786        C  0.03740713  0.80680338  0.80566026    -0.06900
C787        C  0.05759734  0.84494087  0.81735648     0.13900
C788        C  0.06856545  0.83857261  0.84668519    -0.20400
C789        C  0.06062934  0.79414653  0.86390006    -0.06900
C790        C  0.04203948  0.75451439  0.85147183     0.13900
C791        C  0.03269762  0.70662346  0.86940245    -0.23800
H792        H  0.51792139  0.72946695  0.81191393     0.15200
H793        H  0.08408585  0.86753676  0.85593709     0.15200
C794        C  0.06835068  0.89122794  0.79879706    -0.23700
H795        H  0.52138011  0.71769360  0.88946582     0.05400
H796        H  0.05292113  0.68295955  0.87555751     0.08700
H797        H  0.01714690  0.68054212  0.85656021     0.08700
H798        H  0.04905357  0.91468862  0.79021717     0.08700
H799        H  0.08172030  0.87641307  0.77938710     0.08700
H800        H  0.08311569  0.91817405  0.81196765     0.05400
C801        C  0.31430532  0.73746074  0.84161669    -0.20400
C802        C  0.31183899  0.69712908  0.86328810    -0.06900
C803        C  0.29768537  0.64865987  0.85518827     0.13900
C804        C  0.28626413  0.64256105  0.82603925    -0.20400
C805        C  0.28773932  0.68379938  0.80506388    -0.06900
C806        C  0.30238189  0.73151470  0.81276616     0.13900
C807        C  0.30455195  0.77703885  0.79101360    -0.23800
H808        H  0.32524649  0.77453119  0.84736490     0.15200
H809        H  0.27494461  0.60609998  0.81987248     0.15200
C810        C  0.29435802  0.60303825  0.87674998    -0.23700
H811        H  0.31576934  0.81211032  0.80117115     0.05400
H812        H  0.28158659  0.78929638  0.78376156     0.08700
H813        H  0.31809305  0.76490215  0.77113844     0.08700
H814        H  0.27996450  0.61511639  0.89607399     0.08700
H815        H  0.31698222  0.59021569  0.88473663     0.08700
H816        H  0.28336188  0.56820768  0.86607619     0.05400
C817        C  0.30248405  0.74191008  0.65441771    -0.20400
C818        C  0.29901975  0.70069156  0.63349487    -0.06900
C819        C  0.28568353  0.65245075  0.64272394     0.13900
C820        C  0.27669373  0.64646445  0.67274388    -0.20400
C821        C  0.27941398  0.68813621  0.69346055    -0.06900
C822        C  0.29211735  0.73684164  0.68404071     0.13900
C823        C  0.29405168  0.78489659  0.70412426    -0.27000
H824        H  0.31282552  0.77886935  0.64740044     0.15200
H825        H  0.26678163  0.60939505  0.67997998     0.15200
C826        C  0.28155474  0.60668534  0.62130932    -0.23700
H827        H  0.28190221  0.81851793  0.69352240     0.05400
H828        H  0.31814376  0.79605644  0.70724422     0.08700
H829        H  0.28372128  0.77864836  0.72647569     0.08700
H830        H  0.30376369  0.59486720  0.61162001     0.08700
H831        H  0.26593211  0.61831899  0.60301678     0.08700
H832        H  0.27166562  0.57152320  0.63264944     0.05400
C833        C  0.46264413  0.84830185  0.85977056    -0.20400
C834        C  0.45292197  0.79768006  0.86848576    -0.06900
C835        C  0.45167903  0.75651650  0.84689628     0.13900
C836        C  0.46092566  0.76675410  0.81732776    -0.20400
C837        C  0.47192088  0.81673119  0.80898277    -0.06900
C838        C  0.47169050  0.85851335  0.83010906     0.13900
C839        C  0.98072450  0.91446291  0.82117211    -0.23800
H840        H  0.46228591  0.88034635  0.87603547     0.15200
H841        H  0.46116260  0.73486419  0.80096088     0.15200
C842        C  0.44190665  0.70119309  0.85520857    -0.23700
H843        H  0.97838727  0.94273671  0.84019553     0.05400
H844        H  0.96608665  0.92841974  0.80259272     0.08700
H845        H  0.00454328  0.91499841  0.81371865     0.08700
H846        H  0.41777153  0.70103793  0.86217218     0.08700
H847        H  0.45613226  0.68628037  0.87387028     0.08700
H848        H  0.44431963  0.67326447  0.83603142     0.05400
C849        C  0.44981282  0.84868933  0.64902916    -0.20400
C850        C  0.44204394  0.79688018  0.64028253    -0.06900
C851        C  0.44568123  0.75484345  0.66109733     0.13900
C852        C  0.45724001  0.76578010  0.68967010    -0.20400
C853        C  0.46642739  0.81692694  0.69768783    -0.06900
C854        C  0.46171608  0.85923031  0.67761749     0.13900
C855        C  0.46861488  0.91543134  0.68657435    -0.23800
H856        H  0.44613343  0.88119660  0.63360630     0.15200
H857        H  0.96104926  0.73334536  0.70537742     0.15200
C858        C  0.43902000  0.69786899  0.65309670    -0.23700
H859        H  0.46261525  0.94397197  0.66860901     0.05400
H860        H  0.49300480  0.91966357  0.69119509     0.08700
H861        H  0.45551719  0.92598857  0.70705555     0.08700
H862        H  0.45149582  0.68670229  0.63233393     0.08700
H863        H  0.41435418  0.69213729  0.64986286     0.08700
H864        H  0.94627733  0.66967986  0.67132782     0.05400
C865        C  0.29516609  0.25321867  0.64856185    -0.20400
C866        C  0.29891162  0.29864542  0.63091419    -0.06900
C867        C  0.29526326  0.34930974  0.64392516     0.13900
C868        C  0.28675528  0.35327130  0.67416457    -0.20400
C869        C  0.28079377  0.30777952  0.69117291    -0.06900
C870        C  0.28591383  0.25708783  0.67855595     0.13900
C871        C  0.28177394  0.20645257  0.69596591    -0.23800
H872        H  0.29934199  0.21443411  0.63880035     0.15200
H873        H  0.28331090  0.39199509  0.68423376     0.15200
C874        C  0.30082233  0.39907175  0.62610971    -0.23700
H875        H  0.30352573  0.18435846  0.69642516     0.05400
H876        H  0.26446513  0.18142851  0.68480908     0.08700
H877        H  0.27456344  0.21323553  0.71950464     0.08700
H878        H  0.28501152  0.40075340  0.60684357     0.08700
H879        H  0.32449376  0.39941115  0.61762371     0.08700
H880        H  0.29726972  0.43529665  0.63991801     0.05400
C881        C  0.30512115  0.33621317  0.84871063    -0.20400
C882        C  0.30398105  0.28525618  0.86124494    -0.06900
C883        C  0.29234205  0.24266789  0.84417319     0.13900
C884        C  0.28231899  0.25216049  0.81490565    -0.20400
C885        C  0.28308969  0.30319936  0.80255925    -0.06900
C886        C  0.29486979  0.34574259  0.81950943     0.13900
C887        C  0.29642674  0.40161237  0.80770643    -0.23800
H888        H  0.31453263  0.36872021  0.86162173     0.15200
H889        H  0.27265265  0.22002754  0.80191008     0.15200
C890        C  0.28908499  0.18780932  0.85713370    -0.23700
H891        H  0.28287526  0.42826125  0.82241123     0.05400
H892        H  0.28773164  0.40524834  0.78450888     0.08700
H893        H  0.32032408  0.41523281  0.80772522     0.08700
H894        H  0.27541062  0.18967295  0.87807706     0.08700
H895        H  0.31166462  0.17073169  0.86205384     0.08700
H896        H  0.27751532  0.16046542  0.84132429     0.05400
C897        C  0.43510309  0.23987950  0.65925404    -0.20400
C898        C  0.43950647  0.20107637  0.63683528    -0.06900
C899        C  0.45533079  0.15385172  0.64431823     0.13900
C900        C  0.46646959  0.14754488  0.67355228    -0.20400
C901        C  0.46285294  0.18724144  0.69531180    -0.06900
C902        C  0.44655505  0.23356613  0.68827140     0.13900
C903        C  0.44198187  0.27713442  0.71110170    -0.23800
H904        H  0.42284912  0.27591859  0.65404918     0.15200
H905        H  0.97946365  0.11199688  0.67902729     0.15200
C906        C  0.46068743  0.10966591  0.62204510    -0.23700
H907        H  0.42931622  0.31121755  0.70161201     0.05400
H908        H  0.46419537  0.29193744  0.71908561     0.08700
H909        H  0.42886409  0.26178418  0.73050106     0.08700
H910        H  0.47479057  0.12420794  0.60311279     0.08700
H911        H  0.43871216  0.09456390  0.61357479     0.08700
H912        H  0.97364111  0.07596033  0.63191697     0.05400
C913        C  0.46062846  0.14765096  0.85735738    -0.20400
C914        C  0.44519506  0.19416407  0.86548384    -0.06900
C915        C  0.43929039  0.23321572  0.84346422     0.13900
C916        C  0.45008899  0.22554033  0.81419776    -0.20400
C917        C  0.46672511  0.18017037  0.80648908    -0.06900
C918        C  0.47088515  0.13966298  0.82787070     0.13900
C919        C  0.98562345  0.08753734  0.81963484    -0.23800
H920        H  0.46391954  0.11684801  0.87395118     0.15200
H921        H  0.44699240  0.25637745  0.79757094     0.15200
C922        C  0.42285590  0.28411293  0.85088031    -0.23700
H923        H  0.98616054  0.05970855  0.83890095     0.05400
H924        H  0.00914187  0.09378160  0.81207724     0.08700
H925        H  0.97260512  0.06862204  0.80124031     0.08700
H926        H  0.43435938  0.30460430  0.86973636     0.08700
H927        H  0.39898684  0.27577680  0.85707786     0.08700
H928        H  0.42245986  0.31162578  0.83146199     0.05400
C929        C  0.21933672  0.35074807  0.82496589    -0.20400
C930        C  0.21819931  0.30905794  0.80418206    -0.06900
C931        C  0.20623131  0.25957786  0.81289280     0.13900
C932        C  0.19545799  0.25326955  0.84216227    -0.20400
C933        C  0.19674527  0.29467163  0.86335054    -0.06900
C934        C  0.20912887  0.34420390  0.85457566     0.13900
C935        C  0.21140957  0.39066492  0.87580170    -0.23800
H936        H  0.22907924  0.38824649  0.81809075     0.15200
H937        H  0.18614672  0.21511557  0.84849855     0.15200
C938        C  0.20536921  0.21196259  0.79234739    -0.23700
H939        H  0.22123502  0.42611434  0.86469157     0.05400
H940        H  0.22636607  0.38037109  0.89488717     0.08700
H941        H  0.18855709  0.40169719  0.88421175     0.08700
H942        H  0.21569395  0.21935285  0.77010280     0.08700
H943        H  0.18151258  0.19959497  0.78890888     0.08700
H944        H  0.21798566  0.17869331  0.80276303     0.05400
C945        C  0.18828904  0.26687571  0.65454114    -0.20400
C946        C  0.19237918  0.30842406  0.63405717    -0.06900
C947        C  0.20683848  0.35554865  0.64346746     0.13900
C948        C  0.21728353  0.35945786  0.67304031    -0.20400
C949        C  0.21523594  0.31644226  0.69279025    -0.06900
C950        C  0.19984336  0.27006362  0.68374989     0.13900
C951        C  0.19588285  0.22371589  0.70464959    -0.23800
H952        H  0.17654516  0.23130434  0.64741162     0.15200
H953        H  0.22834393  0.39547573  0.68046171     0.15200
C954        C  0.21101993  0.40197475  0.62262985    -0.23700
H955        H  0.18423344  0.19002633  0.69352063     0.05400
H956        H  0.18198388  0.23587554  0.72428106     0.08700
H957        H  0.21821815  0.20951199  0.71251867     0.08700
H958        H  0.18869838  0.41527599  0.61408127     0.08700
H959        H  0.22578381  0.39041245  0.60349582     0.08700
H960        H  0.22190464  0.43610081  0.63411126     0.05400
C961        C  0.06661656  0.16966022  0.84297688    -0.20400
C962        C  0.05414954  0.20571202  0.86365143    -0.06900
C963        C  0.03213592  0.24233542  0.85415868     0.13900
C964        C  0.02224196  0.24067798  0.82436346    -0.20400
C965        C  0.03221257  0.20089341  0.80449428    -0.06900
C966        C  0.05586930  0.16660930  0.81341506     0.13900
C967        C  0.06951973  0.12630516  0.79222144    -0.23800
H968        H  0.08448297  0.14314974  0.85020595     0.15200
H969        H  0.50557331  0.26912284  0.81689635     0.15200
C970        C  0.01911002  0.28307097  0.87537013    -0.23700
H971        H  0.08634083  0.10071534  0.80369202     0.05400
H972        H  0.08144541  0.14682198  0.77366281     0.08700
H973        H  0.05177195  0.10026551  0.78266636     0.08700
H974        H  0.03751943  0.30850882  0.88428439     0.08700
H975        H  0.00748149  0.26290908  0.89428559     0.08700
H976        H  0.50247299  0.30923650  0.86407181     0.05400
C977        C  0.02276276  0.25027503  0.67794643    -0.20400
C978        C  0.02743071  0.20202087  0.69276966    -0.06900
C979        C  0.04273859  0.16027174  0.67806631     0.13900
C980        C  0.05258164  0.16743728  0.64843811    -0.20400
C981        C  0.04806782  0.21578142  0.63363574    -0.06900
C982        C  0.03301211  0.25776720  0.64849103     0.13900
C983        C  0.02705707  0.30984454  0.63308998    -0.23800
H984        H  0.51127003  0.28232532  0.68970266     0.15200
H985        H  0.06484923  0.13587585  0.63713587     0.15200
C986        C  0.04871078  0.10838479  0.69367794    -0.23700
H987        H  0.51456514  0.33801851  0.64807021     0.05400
H988        H  0.01398548  0.30281384  0.61222498     0.08700
H989        H  0.04874193  0.32965338  0.62743104     0.08700
H990        H  0.02707863  0.08994853  0.70083786     0.08700
H991        H  0.06294125  0.11542253  0.71377262     0.08700
H992        H  0.06077631  0.07986308  0.67881937     0.05400
C993        C  0.73548477  0.54766919  0.50455665     0.02200
C994        C  0.76689748  0.54694973  0.49774471     0.02200
C995        C  0.78135958  0.49791532  0.49310633    -0.18300
C996        C  0.76540103  0.44992521  0.99459149     0.02200
C997        C  0.73385556  0.45096914  0.99970140     0.02200
C998        C  0.71947189  0.49959308  0.00530211    -0.18300
H999        H  0.69517560  0.50021503  0.00902470     0.04200
H1000       H  0.80556053  0.49702113  0.48883975     0.04200
C1001       C  0.51735571  0.95305602  0.99735225     0.02200
C1002       C  0.98586904  0.95123570  0.00375449     0.02200
C1003       C  0.96969190  0.99886762  0.00653628    -0.18300
C1004       C  0.98387659  0.04823721  0.00353642     0.02200
C1005       C  0.51549282  0.05039534  0.99869069     0.02200
C1006       C  0.53168678  0.00275030  0.99501978    -0.18300
H1007       H  0.55599560  0.00433767  0.99154938     0.04200
H1008       H  0.94545724  0.99748937  0.01060228     0.04200
O1009       O  0.62373863  0.29359678  0.44817850    -0.88400
C1010       C  0.61297600  0.13853753  0.47363407     0.87600
Mg1011     Mg  0.66310490  0.34131862  0.45838591     1.58100
O1012       O  0.56618700  0.22861411  0.01245961    -0.88100
O1013       O  0.57417237  0.29478368  0.45277365    -0.75500
C1014       C  0.67936112  0.30279881  0.10374790     0.92700
O1015       O  0.67543099  0.20518380  0.45858204    -0.75300
O1016       O  0.69543839  0.31395210  0.08091496    -0.82800
Mg1017     Mg  0.63276227  0.21570175  0.43010681     1.58000
C1018       C  0.56354626  0.22364326  0.10485073     0.92600
O1019       O  0.59413684  0.21938603  0.39699246    -0.81100
H1020       H  0.53529870  0.28653561  0.01162681    -0.06400
C1021       C  0.64659810  0.18994394  0.05261461     0.87500
O1022       O  0.63805995  0.38132286  0.49740882    -0.75600
O1023       O  0.60459770  0.18177767  0.46379955    -0.88300
O1024       O  0.55833157  0.19205122  0.08307405    -0.81100
C1025       C  0.53297647  0.10012519  0.00147986     0.92700
C1026       C  0.56644883  0.20710919  0.39425492     0.92600
Mg1027     Mg  0.61327444  0.29175308  0.06784009     1.58000
O1028       O  0.65202752  0.28757708  0.10152779    -0.81100
O1029       O  0.57093966  0.30163207  0.03886357    -0.75300
O1030       O  0.53883287  0.12741918  0.47805364    -0.81100
O1031       O  0.66132680  0.25028539  0.39406803    -0.82900
O1032       O  0.70806835  0.37681472  0.01996108    -0.81200
C1033       C  0.55633287  0.27212487  0.02089961     0.87000
O1034       O  0.64164107  0.32488331  0.03410878    -0.88300
O1035       O  0.62212953  0.21350083  0.05030656    -0.88400
O1036       O  0.67164983  0.21195279  0.04602848    -0.75500
Mg1037     Mg  0.55868141  0.21067653  0.46626282     1.58000
O1038       O  0.54331481  0.11231844  0.02729308    -0.82900
H1039       H  0.59905817  0.35825379  0.43953633    -0.06600
O1040       O  0.67973805  0.27716144  0.48578524    -0.88100
H1041       H  0.71096545  0.21976787  0.48607141    -0.06400
H1042       H  0.62194809  0.39572708  0.03936247    -0.06600
C1043       C  0.68984911  0.23412825  0.47695693     0.87000
C1044       C  0.59918705  0.31709654  0.44625476     0.87600
C1045       C  0.63368414  0.36853616  0.02454853     0.87600
H1046       H  0.64661603  0.14898752  0.05971218    -0.06600
O1047       O  0.60871178  0.12600165  0.00080252    -0.75600
Mg1048     Mg  0.68725177  0.29547522  0.03190696     1.58000
H1049       H  0.62501597  0.11147636  0.45898616    -0.06600
C1050       C  0.68163824  0.28566967  0.39277345     0.92600
O1051       O  0.70383132  0.39255755  0.47079032    -0.82800
C1052       C  0.71466024  0.40353556  0.99658648     0.92600
O1053       O  0.54981709  0.19538974  0.41665507    -0.82800
Mg1054     Mg  0.58330656  0.16508824  0.03994080     1.58200
O1055       O  0.68809547  0.31440130  0.41540999    -0.81100
O1056       O  0.58359905  0.25941065  0.10363596    -0.82800
O1057       O  0.86994815  0.20351153  0.04817654    -0.88400
C1058       C  0.86120416  0.35923843  0.02397621     0.87600
Mg1059     Mg  0.90987022  0.15597220  0.04024807     1.58100
O1060       O  0.81523775  0.27104543  0.48282779    -0.88100
O1061       O  0.82050302  0.20452748  0.04284313    -0.75500
C1062       C  0.93263046  0.19821434  0.39606085     0.92700
O1063       O  0.92223560  0.29193915  0.04189295    -0.75300
O1064       O  0.94866092  0.18616591  0.41877487    -0.82800
Mg1065     Mg  0.87786344  0.27978434  0.06785926     1.58000
C1066       C  0.81807904  0.27713264  0.39063108     0.92600
O1067       O  0.83722385  0.27143663  0.09843859    -0.81100
H1068       H  0.78460723  0.21281480  0.48282557    -0.06400
C1069       C  0.89814640  0.30865533  0.44625971     0.87500
O1070       O  0.88752787  0.11578142  0.00002660    -0.75600
O1071       O  0.85217394  0.31577448  0.03284261    -0.88300
O1072       O  0.81233123  0.30925875  0.41204268    -0.81100
C1073       C  0.78288189  0.40023265  0.99183960     0.92700
C1074       C  0.81117023  0.29222631  0.10053432     0.92600
Mg1075     Mg  0.86528836  0.20721103  0.43011930     1.58000
O1076       O  0.90500648  0.21126145  0.39845921    -0.81100
O1077       O  0.82175462  0.19727294  0.45743396    -0.75300
O1078       O  0.78712839  0.37210145  0.01528787    -0.81100
O1079       O  0.90417702  0.24421619  0.10545918    -0.82900
O1080       O  0.95988059  0.12305636  0.48182888    -0.81200
C1081       C  0.80603845  0.22720679  0.47434747     0.87000
O1082       O  0.89267491  0.17363191  0.46437467    -0.88300
O1083       O  0.87365521  0.28512349  0.44809692    -0.88400
O1084       O  0.92298225  0.28676987  0.45354821    -0.75500
Mg1085     Mg  0.80624400  0.28946664  0.02870628     1.58000
O1086       O  0.79502175  0.38900979  0.46661753    -0.82900
H1087       H  0.84431743  0.13957008  0.05583424    -0.06600
O1088       O  0.92832252  0.22089033  0.01411687    -0.88100
H1089       H  0.95930541  0.27851538  0.01592907    -0.06400
H1090       H  0.87433052  0.10234732  0.45710692    -0.06600
C1091       C  0.93775261  0.26373049  0.02386087     0.87000
C1092       C  0.84511058  0.18084211  0.04938690     0.87600
C1093       C  0.88473516  0.12932810  0.47287734     0.87600
H1094       H  0.89833890  0.34952468  0.43900487    -0.06600
O1095       O  0.85826643  0.37279058  0.49683834    -0.75600
Mg1096     Mg  0.93832311  0.20352322  0.46820000     1.58000
H1097       H  0.87251737  0.38557173  0.03947389    -0.06600
C1098       C  0.92484643  0.20947390  0.10715244     0.92600
O1099       O  0.95102077  0.10520902  0.03020529    -0.82800
C1100       C  0.96448370  0.09567339  0.00544522     0.92600
O1101       O  0.79671912  0.30897422  0.07780809    -0.82800
Mg1102     Mg  0.83487263  0.33461433  0.45638356     1.58200
O1103       O  0.93249257  0.18195203  0.08438023    -0.81100
O1104       O  0.83735821  0.24020316  0.39302506    -0.82800
O1105       O  0.88025594  0.70470649  0.45186800    -0.88400
C1106       C  0.88919339  0.86229890  0.47414228     0.87600
Mg1107     Mg  0.84081446  0.65607467  0.46049347     1.58100
O1108       O  0.93339665  0.77480534  0.01722127    -0.88100
O1109       O  0.92960579  0.70556104  0.45744921    -0.75500
C1110       C  0.81342996  0.70540952  0.10352578     0.92700
O1111       O  0.82767887  0.79241957  0.45751521    -0.75300
O1112       O  0.79893172  0.69145049  0.08018625    -0.82800
Mg1113     Mg  0.87203296  0.78059713  0.43158421     1.58000
C1114       C  0.92845164  0.78775506  0.11020507     0.92600
O1115       O  0.91262288  0.77451341  0.40051187    -0.81100
H1116       H  0.96341781  0.71563749  0.01951332    -0.06400
C1117       C  0.84926598  0.81554167  0.05122898     0.87500
O1118       O  0.86316326  0.61989630  0.50183719    -0.75600
O1119       O  0.89800128  0.81814351  0.46597714    -0.88300
O1120       O  0.93596187  0.81679017  0.08795180    -0.81100
C1121       C  0.96815478  0.90171843  0.50661458     0.92700
C1122       C  0.93944667  0.79214152  0.39850897     0.92600
Mg1123     Mg  0.88143902  0.71643222  0.07116362     1.58000
O1124       O  0.84034970  0.72310955  0.10219939    -0.81100
O1125       O  0.92584989  0.70428183  0.04501129    -0.75300
O1126       O  0.96396967  0.87289078  0.48337728    -0.81100
O1127       O  0.84556693  0.74304847  0.39466759    -0.82900
O1128       O  0.78929839  0.62468027  0.01881424    -0.81200
C1129       C  0.94200107  0.73160317  0.02716340     0.87000
O1130       O  0.85566497  0.67901030  0.03678809    -0.88300
O1131       O  0.87404714  0.79256210  0.05095091    -0.88400
O1132       O  0.82480347  0.79193913  0.04423004    -0.75500
Mg1133     Mg  0.94384964  0.79050616  0.47095122     1.58000
O1134       O  0.95504725  0.89233552  0.03162134    -0.82900
H1135       H  0.90588911  0.64055668  0.44443165    -0.06600
O1136       O  0.82091911  0.72169101  0.48521948    -0.88100
H1137       H  0.79010989  0.77955084  0.48273039    -0.06400
H1138       H  0.87553321  0.60943093  0.04526374    -0.06600
C1139       C  0.81175945  0.76443266  0.47517755     0.87000
C1140       C  0.90507537  0.68194732  0.45075949     0.87600
C1141       C  0.86486623  0.63493370  0.02894925     0.87600
H1142       H  0.84843370  0.85714132  0.05709714    -0.06600
O1143       O  0.89166034  0.87717178  0.00115774    -0.75600
Mg1144     Mg  0.81003247  0.70695632  0.03110611     1.58000
H1145       H  0.87839229  0.88820147  0.45811827    -0.06600
C1146       C  0.82564400  0.70700430  0.39297856     0.92600
O1147       O  0.80020639  0.60351229  0.47120215    -0.82800
C1148       C  0.78591983  0.59515318  0.49567624     0.92600
O1149       O  0.95433627  0.80713413  0.42144545    -0.82800
Mg1150     Mg  0.91402013  0.84038525  0.04251110     1.58200
O1151       O  0.81869231  0.67881845  0.41563256    -0.81100
O1152       O  0.90794400  0.75299223  0.10807813    -0.82800
O1153       O  0.62380505  0.70820812  0.05180960    -0.88400
C1154       C  0.61559354  0.86523062  0.02794156     0.87600
Mg1155     Mg  0.66320220  0.65878244  0.04351053     1.58100
O1156       O  0.57105069  0.77778004  0.48528430    -0.88100
O1157       O  0.57458406  0.70940506  0.04504751    -0.75500
C1158       C  0.68976425  0.70349549  0.39969685     0.92700
O1159       O  0.67663351  0.79542224  0.04526491    -0.75300
O1160       O  0.70500569  0.69172907  0.42293628    -0.82800
Mg1161     Mg  0.63213198  0.78544792  0.07107616     1.58000
C1162       C  0.57516797  0.78669449  0.39300485     0.92600
O1163       O  0.59151011  0.78228948  0.10208385    -0.81100
H1164       H  0.54003560  0.72027316  0.48366845    -0.06400
C1165       C  0.65491516  0.81541228  0.45064776     0.87500
O1166       O  0.64094035  0.62157798  0.00229917    -0.75600
O1167       O  0.60630676  0.82164270  0.03636475    -0.88300
O1168       O  0.56906774  0.81811033  0.41466748    -0.81100
C1169       C  0.53660142  0.90514326  0.49504287     0.92700
C1170       C  0.56419936  0.79770203  0.10356528     0.92600
Mg1171     Mg  0.62169901  0.71517999  0.43225003     1.58000
O1172       O  0.66229432  0.71820117  0.40098620    -0.81100
O1173       O  0.57750853  0.70546011  0.45860812    -0.75300
O1174       O  0.54021340  0.87610840  0.01821933    -0.81100
O1175       O  0.65847356  0.74977818  0.10829471    -0.82900
O1176       O  0.71369550  0.62608473  0.48483719    -0.81200
C1177       C  0.56171456  0.73467084  0.47584803     0.87000
O1178       O  0.64786611  0.67973723  0.46691410    -0.88300
O1179       O  0.63010088  0.79266324  0.45121755    -0.88400
O1180       O  0.67928334  0.79224903  0.45831476    -0.75500
Mg1181     Mg  0.56037718  0.79404656  0.03117863     1.58000
O1182       O  0.55047981  0.89605255  0.47036370    -0.82900
H1183       H  0.59786325  0.64447625  0.05882306    -0.06600
O1184       O  0.68296911  0.72365820  0.01815638    -0.88100
H1185       H  0.71425166  0.78065667  0.02039722    -0.06400
H1186       H  0.62826511  0.60967839  0.45910884    -0.06600
C1187       C  0.69244079  0.76641208  0.02793894     0.87000
C1188       C  0.59890511  0.68575429  0.05242448     0.87600
C1189       C  0.63893253  0.63582373  0.47515321     0.87600
H1190       H  0.65580576  0.85665084  0.44414949    -0.06600
O1191       O  0.61362313  0.87927765  0.50076399    -0.75600
Mg1192     Mg  0.69364660  0.70787620  0.47215970     1.58000
H1193       H  0.62654581  0.89124744  0.04386268    -0.06600
C1194       C  0.67804346  0.71332628  0.11059624     0.92600
O1195       O  0.70396138  0.60558626  0.03277785    -0.82800
C1196       C  0.71746932  0.59673983  0.50783124     0.92600
O1197       O  0.54899783  0.81033295  0.08044216    -0.82800
Mg1198     Mg  0.59094887  0.84224509  0.45969205     1.58200
O1199       O  0.68470874  0.68241219  0.08885051    -0.81100
O1200       O  0.59458719  0.74988771  0.39505021    -0.82800
C1201       C  0.51243697  0.19375477  0.22202602     0.02200
C1202       C  0.98092369  0.18374957  0.22314742     0.02200
C1203       C  0.96672756  0.17645442  0.25092388    -0.18300
C1204       C  0.98331952  0.18032678  0.27756710     0.02200
C1205       C  0.51474933  0.19200021  0.27649363     0.02200
C1206       C  0.52904641  0.19790979  0.24858104    -0.18300
H1207       H  0.55284502  0.20802093  0.24744155     0.04200
H1208       H  0.94249898  0.16979972  0.25188144     0.04200
C1209       C  0.98523702  0.82258265  0.22495444     0.02200
C1210       C  0.51693748  0.81795947  0.22337742     0.02200
C1211       C  0.53395293  0.81511109  0.24979785    -0.18300
C1212       C  0.51964191  0.81627258  0.27791884     0.02200
C1213       C  0.98766291  0.82198731  0.27950888     0.02200
C1214       C  0.97081223  0.82497229  0.25298390    -0.18300
H1215       H  0.94631135  0.82671710  0.25415264     0.04200
H1216       H  0.55819678  0.80892014  0.24841887     0.04200
C1217       C  0.76494816  0.68117133  0.22319674     0.02200
C1218       C  0.73305529  0.68227115  0.22554929     0.02200
C1219       C  0.71912777  0.68177865  0.25381822    -0.18300
C1220       C  0.73674637  0.68140205  0.27987827     0.02200
C1221       C  0.76868123  0.67964773  0.27758499     0.02200
C1222       C  0.78252403  0.67838950  0.24923339    -0.18300
H1223       H  0.80699845  0.67778040  0.24742489     0.04200
H1224       H  0.69468853  0.68454100  0.25554429     0.04200
C1225       C  0.73270186  0.31808406  0.22096066     0.02200
C1226       C  0.76466985  0.31435016  0.22007778     0.02200
C1227       C  0.78116784  0.31228830  0.24681853    -0.18300
C1228       C  0.76602955  0.31201638  0.27442787     0.02200
C1229       C  0.73416490  0.31519137  0.27532886     0.02200
C1230       C  0.71773082  0.31956798  0.24867612    -0.18300
H1231       H  0.69322351  0.32147259  0.24949643     0.04200
H1232       H  0.80559808  0.30824457  0.24609312     0.04200
C1233       C  0.69068043  0.65557189  0.15359638    -0.20400
C1234       C  0.69220681  0.70577504  0.14009257    -0.06900
C1235       C  0.70451798  0.74897537  0.15617587     0.13900
C1236       C  0.71549734  0.74070713  0.18516162    -0.20400
C1237       C  0.71474769  0.69038415  0.19831443    -0.06900
C1238       C  0.70159087  0.64749752  0.18278639     0.13900
C1239       C  0.69931597  0.59347073  0.19695843    -0.23800
H1240       H  0.68046164  0.62289718  0.14146707     0.15200
H1241       H  0.72597432  0.77317438  0.19725069     0.15200
C1242       C  0.70742522  0.80329953  0.14241878    -0.23700
H1243       H  0.68856645  0.56428650  0.18164329     0.05400
H1244       H  0.68540318  0.59607876  0.21771410     0.08700
H1245       H  0.72213852  0.57848380  0.20284756     0.08700
H1246       H  0.68470329  0.82031171  0.13806763     0.08700
H1247       H  0.72036423  0.80055738  0.12105451     0.08700
H1248       H  0.71955653  0.83121157  0.15747457     0.05400
C1249       C  0.69923979  0.64982530  0.35437601    -0.20400
C1250       C  0.70323796  0.69791271  0.36973220    -0.06900
C1251       C  0.71614180  0.74159408  0.35482863     0.13900
C1252       C  0.72536284  0.73592447  0.32486741    -0.20400
C1253       C  0.72203869  0.68748125  0.30963155    -0.06900
C1254       C  0.70848238  0.64408573  0.32437244     0.13900
C1255       C  0.70407947  0.59179153  0.30857036    -0.23800
H1256       H  0.68849191  0.61691733  0.36582096     0.15200
H1257       H  0.73585068  0.76903251  0.31341689     0.15200
C1258       C  0.72020893  0.79396345  0.37059950    -0.23700
H1259       H  0.69350564  0.56187091  0.32354180     0.05400
H1260       H  0.72619919  0.57590909  0.30079394     0.08700
H1261       H  0.68909836  0.59732663  0.28888613     0.08700
H1262       H  0.73493118  0.78857245  0.39050118     0.08700
H1263       H  0.69786094  0.80953306  0.37799627     0.08700
H1264       H  0.73089686  0.82391132  0.35572232     0.05400
C1265       C  0.55832110  0.84796527  0.15067441    -0.20400
C1266       C  0.55096441  0.80290848  0.13365588    -0.06900
C1267       C  0.53558891  0.76040120  0.14725661     0.13900
C1268       C  0.52680537  0.76478951  0.17739340    -0.20400
C1269       C  0.53220069  0.81135364  0.19387576    -0.06900
C1270       C  0.54944938  0.85243499  0.18086887     0.13900
C1271       C  0.05980128  0.89960702  0.19927218    -0.23800
H1272       H  0.57168790  0.87915541  0.14045620     0.15200
H1273       H  0.51505010  0.73215983  0.18802556     0.15200
C1274       C  0.52856534  0.71052285  0.12999779    -0.23700
H1275       H  0.07227038  0.92880133  0.18530333     0.05400
H1276       H  0.57478285  0.88663181  0.21716159     0.08700
H1277       H  0.04020699  0.92008480  0.20967346     0.08700
H1278       H  0.54991660  0.69188233  0.12199311     0.08700
H1279       H  0.51416134  0.72027470  0.11040404     0.08700
H1280       H  0.51625045  0.68122592  0.14404002     0.05400
C1281       C  0.53171538  0.76033114  0.32186250    -0.20400
C1282       C  0.53755503  0.80670495  0.30549589    -0.06900
C1283       C  0.55736073  0.84523186  0.31740113     0.13900
C1284       C  0.56818942  0.83891729  0.34678286    -0.20400
C1285       C  0.56052820  0.79412763  0.36382155    -0.06900
C1286       C  0.54239623  0.75407508  0.35114042     0.13900
C1287       C  0.53336892  0.70573669  0.36884747    -0.23800
H1288       H  0.01687275  0.73049462  0.31257842     0.15200
H1289       H  0.58341673  0.86819111  0.35619982     0.15200
C1290       C  0.56789839  0.89182246  0.29896915    -0.23700
H1291       H  0.02063184  0.71980483  0.39017293     0.05400
H1292       H  0.55374848  0.68249980  0.37501170     0.08700
H1293       H  0.51810614  0.67940534  0.35582947     0.08700
H1294       H  0.54849778  0.91493613  0.29032454     0.08700
H1295       H  0.58143677  0.87733955  0.27959013     0.08700
H1296       H  0.58242946  0.91898948  0.31225034     0.05400
C1297       C  0.81398880  0.73746361  0.34145183    -0.20400
C1298       C  0.81118354  0.69756453  0.36333837    -0.06900
C1299       C  0.79675123  0.64922509  0.35544762     0.13900
C1300       C  0.78550500  0.64277312  0.32625879    -0.20400
C1301       C  0.78736378  0.68358004  0.30504715    -0.06900
C1302       C  0.80219483  0.73120761  0.31257243     0.13900
C1303       C  0.80467188  0.77636785  0.29060937    -0.23800
H1304       H  0.82511117  0.77444344  0.34703939     0.15200
H1305       H  0.77398090  0.60642257  0.32024059     0.15200
C1306       C  0.79289165  0.60412339  0.37727551    -0.23700
H1307       H  0.81598785  0.81144599  0.30065069     0.05400
H1308       H  0.78179107  0.78881474  0.28319889     0.08700
H1309       H  0.81826148  0.76376972  0.27085955     0.08700
H1310       H  0.77851482  0.61698969  0.39645092     0.08700
H1311       H  0.81535045  0.59079339  0.38544825     0.08700
H1312       H  0.78162177  0.56940522  0.36676805     0.05400
C1313       C  0.80301493  0.74055806  0.15442242    -0.20400
C1314       C  0.79972094  0.69919076  0.13357743    -0.06900
C1315       C  0.78647354  0.65089740  0.14284371     0.13900
C1316       C  0.77725774  0.64510402  0.17281031    -0.20400
C1317       C  0.77976370  0.68696426  0.19343137    -0.06900
C1318       C  0.79248999  0.73563988  0.18399166     0.13900
C1319       C  0.79425900  0.78383712  0.20398085    -0.27000
H1320       H  0.81330823  0.77753870  0.14737054     0.15200
H1321       H  0.76733884  0.60805134  0.18007168     0.15200
C1322       C  0.78267888  0.60489932  0.12152634    -0.23700
H1323       H  0.78215768  0.81736045  0.19322775     0.05400
H1324       H  0.81832177  0.79507173  0.20723089     0.08700
H1325       H  0.78378575  0.77771817  0.22627720     0.08700
H1326       H  0.80500450  0.59328330  0.11202484     0.08700
H1327       H  0.76714489  0.61617121  0.10308933     0.08700
H1328       H  0.77285625  0.56971183  0.13289841     0.05400
C1329       C  0.96245777  0.84905826  0.35956157    -0.20400
C1330       C  0.95213200  0.79869450  0.36807500    -0.06900
C1331       C  0.95047235  0.75781091  0.34633815     0.13900
C1332       C  0.95998241  0.76800897  0.31685249    -0.20400
C1333       C  0.97161859  0.81764746  0.30873022    -0.06900
C1334       C  0.97175283  0.85924011  0.32997516     0.13900
C1335       C  0.48020689  0.91420633  0.32125139    -0.23800
H1336       H  0.96243417  0.88093081  0.37593632     0.15200
H1337       H  0.95994104  0.73627556  0.30038743     0.15200
C1338       C  0.94000775  0.70275624  0.35440057    -0.23700
H1339       H  0.47776840  0.94247977  0.34026293     0.05400
H1340       H  0.46533151  0.92773578  0.30275624     0.08700
H1341       H  0.50396661  0.91530994  0.31363669     0.08700
H1342       H  0.91583098  0.70338776  0.36121429     0.08700
H1343       H  0.95394535  0.68712416  0.37308727     0.08700
H1344       H  0.94220410  0.67495495  0.33513955     0.05400
C1345       C  0.95047435  0.84801906  0.14856775    -0.20400
C1346       C  0.94256124  0.79618006  0.13999840    -0.06900
C1347       C  0.94599094  0.75437624  0.16100228     0.13900
C1348       C  0.95744890  0.76558239  0.18958715    -0.20400
C1349       C  0.96674213  0.81675382  0.19744464    -0.06900
C1350       C  0.96228734  0.85882077  0.17716038     0.13900
C1351       C  0.96937421  0.91506346  0.18588500    -0.23800
H1352       H  0.94697189  0.88037091  0.13300076     0.15200
H1353       H  0.46077157  0.73391152  0.20541740     0.15200
C1354       C  0.93919724  0.69735813  0.15321512    -0.23700
H1355       H  0.96354344  0.94341881  0.16777155     0.05400
H1356       H  0.99376713  0.91907671  0.19055712     0.08700
H1357       H  0.95625294  0.92606607  0.20627645     0.08700
H1358       H  0.95171154  0.68581611  0.13254045     0.08700
H1359       H  0.91452634  0.69179150  0.14992735     0.08700
H1360       H  0.44593102  0.67049683  0.17125691     0.05400
C1361       C  0.79495129  0.25319342  0.14854051    -0.20400
C1362       C  0.79869205  0.29855703  0.13084204    -0.06900
C1363       C  0.79498537  0.34926514  0.14378860     0.13900
C1364       C  0.78645730  0.35332126  0.17402276    -0.20400
C1365       C  0.78052685  0.30787773  0.19108698    -0.06900
C1366       C  0.78567135  0.25715306  0.17852197     0.13900
C1367       C  0.78152789  0.20656413  0.19597499    -0.23800
H1368       H  0.79915280  0.21437939  0.13882746     0.15200
H1369       H  0.78298859  0.39207429  0.18404689     0.15200
C1370       C  0.80051297  0.39897437  0.12591540    -0.23700
H1371       H  0.80328548  0.18449192  0.19647751     0.05400
H1372       H  0.76423860  0.18149344  0.18482169     0.08700
H1373       H  0.77428760  0.21339887  0.21949979     0.08700
H1374       H  0.78471858  0.40053671  0.10663296     0.08700
H1375       H  0.82419116  0.39935001  0.11744909     0.08700
H1376       H  0.79691314  0.43524314  0.13967521     0.05400
C1377       C  0.80517854  0.33623102  0.34855815    -0.20400
C1378       C  0.80394581  0.28531902  0.36114608    -0.06900
C1379       C  0.79216897  0.24277036  0.34414342     0.13900
C1380       C  0.78216037  0.25222077  0.31486807    -0.20400
C1381       C  0.78299946  0.30321896  0.30247036    -0.06900
C1382       C  0.79487761  0.34574662  0.31936804     0.13900
C1383       C  0.79647248  0.40158850  0.30752875    -0.23800
H1384       H  0.81467712  0.36871290  0.36142594     0.15200
H1385       H  0.77242187  0.22010108  0.30191716     0.15200
C1386       C  0.78872425  0.18802089  0.35720172    -0.23700
H1387       H  0.78297405  0.42830389  0.32224287     0.05400
H1388       H  0.78773485  0.40521308  0.28434680     0.08700
H1389       H  0.82038438  0.41513181  0.30749365     0.08700
H1390       H  0.77504519  0.19014728  0.37813508     0.08700
H1391       H  0.81124354  0.17074419  0.36216819     0.08700
H1392       H  0.77706818  0.16070769  0.34143818     0.05400
C1393       C  0.93453605  0.23889887  0.15946692    -0.20400
C1394       C  0.93926535  0.20048213  0.13689568    -0.06900
C1395       C  0.95544807  0.15354677  0.14422447     0.13900
C1396       C  0.96660943  0.14716537  0.17344966    -0.20400
C1397       C  0.96270630  0.18654948  0.19534883    -0.06900
C1398       C  0.94604454  0.23255407  0.18846220     0.13900
C1399       C  0.94118779  0.27583172  0.21141303    -0.23800
H1400       H  0.92200841  0.27470787  0.15439542     0.15200
H1401       H  0.47911729  0.11216879  0.17923572     0.15200
C1402       C  0.96121552  0.10978118  0.12178506    -0.23700
H1403       H  0.92827553  0.30972130  0.20202765     0.05400
H1404       H  0.96331193  0.29104104  0.21940358     0.08700
H1405       H  0.92819272  0.26005711  0.23078230     0.08700
H1406       H  0.97520854  0.12493397  0.10292728     0.08700
H1407       H  0.93938581  0.09418520  0.11323289     0.08700
H1408       H  0.47300225  0.07579237  0.13223814     0.05400
C1409       C  0.96085725  0.14767534  0.35748327    -0.20400
C1410       C  0.94523643  0.19405949  0.36550130    -0.06900
C1411       C  0.93920174  0.23289217  0.34339047     0.13900
C1412       C  0.95003857  0.22513108  0.31414510    -0.20400
C1413       C  0.96682756  0.17988288  0.30653408    -0.06900
C1414       C  0.97114477  0.13958608  0.32801358     0.13900
C1415       C  0.48521365  0.08755587  0.31941048    -0.23800
H1416       H  0.96426175  0.11702912  0.37414697     0.15200
H1417       H  0.94682999  0.25581273  0.29744739     0.15200
C1418       C  0.92257468  0.28365700  0.35067683    -0.23700
H1419       H  0.48564649  0.05957622  0.33860938     0.05400
H1420       H  0.50875566  0.09361491  0.31187813     0.08700
H1421       H  0.47213673  0.06892025  0.30096582     0.08700
H1422       H  0.93397537  0.30439900  0.36950708     0.08700
H1423       H  0.89872506  0.27510281  0.35685131     0.08700
H1424       H  0.92211001  0.31103914  0.33120106     0.05400
C1425       C  0.71922650  0.35045075  0.32496876    -0.20400
C1426       C  0.71809812  0.30876603  0.30418303    -0.06900
C1427       C  0.70617970  0.25924935  0.31290020     0.13900
C1428       C  0.69542946  0.25291265  0.34217726    -0.20400
C1429       C  0.69668072  0.29433145  0.36335614    -0.06900
C1430       C  0.70902542  0.34389039  0.35457674     0.13900
C1431       C  0.71125892  0.39037385  0.37579291    -0.23800
H1432       H  0.72894866  0.38796675  0.31809253     0.15200
H1433       H  0.68615241  0.21473818  0.34852405     0.15200
C1434       C  0.70534744  0.21163350  0.29235363    -0.23700
H1435       H  0.72104913  0.42584610  0.36467598     0.05400
H1436       H  0.72622480  0.38014056  0.39488149     0.08700
H1437       H  0.68839489  0.40134346  0.38419860     0.08700
H1438       H  0.71564007  0.21906579  0.27009816     0.08700
H1439       H  0.68150083  0.19918801  0.28893830     0.08700
H1440       H  0.71800853  0.17840222  0.30275557     0.05400
C1441       C  0.68808796  0.26681271  0.15451651    -0.20400
C1442       C  0.69221141  0.30836286  0.13403850    -0.06900
C1443       C  0.70661647  0.35551360  0.14347750     0.13900
C1444       C  0.71700425  0.35943400  0.17306663    -0.20400
C1445       C  0.71496705  0.31639681  0.19280143    -0.06900
C1446       C  0.69959507  0.27000670  0.18374336     0.13900
C1447       C  0.69561882  0.22365006  0.20463528    -0.23800
H1448       H  0.67636371  0.23123375  0.14736653     0.15200
H1449       H  0.72803515  0.39546692  0.18050812     0.15200
C1450       C  0.71080593  0.40194972  0.12264901    -0.23700
H1451       H  0.68398237  0.18996172  0.19349148     0.05400
H1452       H  0.68170113  0.23579376  0.22425714     0.08700
H1453       H  0.71794809  0.20944860  0.21252206     0.08700
H1454       H  0.68849115  0.41521317  0.11406479     0.08700
H1455       H  0.72560597  0.39041386  0.10353751     0.08700
H1456       H  0.72165311  0.43609246  0.13414933     0.05400
C1457       C  0.56641026  0.16931871  0.34313148    -0.20400
C1458       C  0.55403106  0.20554219  0.36375841    -0.06900
C1459       C  0.53213196  0.24233595  0.35422289     0.13900
C1460       C  0.52226528  0.24069695  0.32442224    -0.20400
C1461       C  0.53215742  0.20079657  0.30459101    -0.06900
C1462       C  0.55569760  0.16631165  0.31355956     0.13900
C1463       C  0.56928907  0.12589773  0.29239503    -0.23800
H1464       H  0.58419739  0.14267757  0.35039875     0.15200
H1465       H  0.00547004  0.26900734  0.31689906     0.15200
C1466       C  0.51920598  0.28323695  0.37539268    -0.23700
H1467       H  0.58601351  0.10016769  0.30390389     0.05400
H1468       H  0.58131401  0.14632212  0.27386621     0.08700
H1469       H  0.55150054  0.10000629  0.28278949     0.08700
H1470       H  0.53767986  0.30854348  0.38429535     0.08700
H1471       H  0.50751319  0.26322143  0.39431974     0.08700
H1472       H  0.00231044  0.30898430  0.36410615     0.05400
C1473       C  0.52315436  0.25060696  0.17816091    -0.20400
C1474       C  0.52759259  0.20218252  0.19286960    -0.06900
C1475       C  0.54263819  0.16027966  0.17804396     0.13900
C1476       C  0.55240693  0.16744845  0.14839045    -0.20400
C1477       C  0.54808456  0.21594332  0.13368454    -0.06900
C1478       C  0.53331947  0.25809688  0.14868027     0.13900
C1479       C  0.52755858  0.31036151  0.13340452    -0.23800
H1480       H  0.01055293  0.28175662  0.18932088     0.15200
H1481       H  0.56447429  0.13575755  0.13699350     0.15200
C1482       C  0.54842881  0.10824189  0.19356158    -0.23700
H1483       H  0.01369653  0.33720028  0.14753898     0.05400
H1484       H  0.51439109  0.30365579  0.11256537     0.08700
H1485       H  0.54931265  0.32991802  0.12772819     0.08700
H1486       H  0.52674295  0.09007391  0.20077875     0.08700
H1487       H  0.56276290  0.11499886  0.21361479     0.08700
H1488       H  0.56031082  0.07961874  0.17862068     0.05400
C1489       C  0.73550189  0.54766606  0.00459957     0.02200
C1490       C  0.76691181  0.54694943  0.99777645     0.02200
C1491       C  0.78137121  0.49791943  0.99312328    -0.18300
C1492       C  0.76538941  0.44991902  0.49457897     0.02200
C1493       C  0.73384150  0.45096736  0.49967193     0.02200
C1494       C  0.71945445  0.49959536  0.50525714    -0.18300
H1495       H  0.69515698  0.50021829  0.50897199     0.04200
H1496       H  0.80557086  0.49702653  0.98884824     0.04200
C1497       C  0.51734976  0.95308388  0.49738213     0.02200
C1498       C  0.98587276  0.95121522  0.50377762     0.02200
C1499       C  0.96968798  0.99883827  0.50656175    -0.18300
C1500       C  0.98386553  0.04821650  0.50356492     0.02200
C1501       C  0.51547471  0.05041826  0.49872814     0.02200
C1502       C  0.53167561  0.00278252  0.49506174    -0.18300
H1503       H  0.55598560  0.00438040  0.49160016     0.04200
H1504       H  0.94545318  0.99744628  0.51062534     0.04200
O1505       O  0.62373927  0.29364478  0.94817622    -0.88400
C1506       C  0.61300128  0.13856431  0.97361130     0.87600
Mg1507     Mg  0.66310403  0.34137103  0.95839547     1.58100
O1508       O  0.56618358  0.22862763  0.51247518    -0.88100
O1509       O  0.57417227  0.29479556  0.95276560    -0.75500
C1510       C  0.67936899  0.30283677  0.60374684     0.92700
O1511       O  0.67544776  0.20524314  0.95855498    -0.75300
O1512       O  0.69544311  0.31399589  0.58091256    -0.82800
Mg1513     Mg  0.63277433  0.21576495  0.93008766     1.58000
C1514       C  0.56355396  0.22368941  0.60486134     0.92600
O1515       O  0.59414762  0.21944275  0.89697164    -0.81100
H1516       H  0.53529813  0.28655377  0.51164353    -0.06400
C1517       C  0.64659952  0.18995494  0.55263159     0.87500
O1518       O  0.63805811  0.38134721  0.99742604    -0.75600
O1519       O  0.60461726  0.18180235  0.96377843    -0.88300
O1520       O  0.55833302  0.19209867  0.58308622    -0.81100
C1521       C  0.53295371  0.10015311  0.50151438     0.92700
C1522       C  0.56646469  0.20712870  0.89423593     0.92600
Mg1523     Mg  0.61328310  0.29177021  0.56784376     1.58000
O1524       O  0.65203929  0.28759360  0.60152911    -0.81100
O1525       O  0.57094439  0.30164997  0.53887349    -0.75300
O1526       O  0.53885985  0.12739504  0.97802149    -0.81100
O1527       O  0.66132812  0.25040116  0.89405614    -0.82900
O1528       O  0.70806121  0.37681623  0.51994347    -0.81200
C1529       C  0.55633308  0.27214160  0.52091385     0.87000
O1530       O  0.64164456  0.32488453  0.53410439    -0.88300
O1531       O  0.62213168  0.21351210  0.55031596    -0.88400
O1532       O  0.67165285  0.21196112  0.54604732    -0.75500
Mg1533     Mg  0.55869543  0.21067068  0.96624363     1.58000
O1534       O  0.54330066  0.11234493  0.52732454    -0.82900
H1535       H  0.59904587  0.35829071  0.93954296    -0.06600
O1536       O  0.67973816  0.27719566  0.98577995    -0.88100
H1537       H  0.71097987  0.21982549  0.98604777    -0.06400
H1538       H  0.62195036  0.39573090  0.53934252    -0.06600
C1539       C  0.68985966  0.23417906  0.97693849     0.87000
C1540       C  0.59918299  0.31713002  0.94625446     0.87600
C1541       C  0.63368648  0.36853018  0.52453437     0.87600
H1542       H  0.64661586  0.14900249  0.55973654    -0.06600
O1543       O  0.60869410  0.12598771  0.50082798    -0.75600
Mg1544     Mg  0.68725400  0.29547804  0.53190792     1.58000
H1545       H  0.62505047  0.11151436  0.95896401    -0.06600
C1546       C  0.68163585  0.28579325  0.89276767     0.92600
O1547       O  0.70383265  0.39259432  0.97081235    -0.82800
C1548       C  0.71465137  0.40352520  0.49656411     0.92600
O1549       O  0.54983989  0.19538481  0.91663650    -0.82800
Mg1550     Mg  0.58330081  0.16510606  0.53996062     1.58200
O1551       O  0.68809621  0.31450054  0.91541269    -0.81100
O1552       O  0.58361317  0.25944490  0.60364557    -0.82800
O1553       O  0.86988727  0.20339945  0.54816115    -0.88400
C1554       C  0.86115887  0.35914110  0.52400117     0.87600
Mg1555     Mg  0.90982352  0.15588480  0.54025232     1.58100
O1556       O  0.81528309  0.27109315  0.98283567    -0.88100
O1557       O  0.82044184  0.20444317  0.54281774    -0.75500
C1558       C  0.93262587  0.19822255  0.89603826     0.92700
O1559       O  0.92216935  0.29185069  0.54193995    -0.75300
O1560       O  0.94865768  0.18616994  0.91874990    -0.82800
Mg1561     Mg  0.87778229  0.27964594  0.56787467     1.58000
C1562       C  0.81807991  0.27718393  0.89062099     0.92600
O1563       O  0.83712215  0.27118938  0.59841913    -0.81100
H1564       H  0.78463154  0.21289604  0.98283798    -0.06400
C1565       C  0.89816628  0.30869561  0.94622687     0.87500
O1566       O  0.88751215  0.11569246  0.50001591    -0.75600
O1567       O  0.85212115  0.31567068  0.53284939    -0.88300
O1568       O  0.81233491  0.30929682  0.91203965    -0.81100
C1569       C  0.78286646  0.40021677  0.49183422     0.92700
C1570       C  0.81110232  0.29210493  0.60052237     0.92600
Mg1571     Mg  0.86529253  0.20725444  0.93010407     1.58000
O1572       O  0.90500477  0.21128572  0.89843887    -0.81100
O1573       O  0.82176238  0.19733078  0.95742649    -0.75300
O1574       O  0.78709780  0.37207435  0.51528212    -0.81100
O1575       O  0.90407933  0.24407223  0.60548340    -0.82900
O1576       O  0.95989156  0.12308139  0.98180172    -0.81200
C1577       C  0.80606423  0.22726935  0.97435321     0.87000
O1578       O  0.89268366  0.17368317  0.96436334    -0.88300
O1579       O  0.87367257  0.28517283  0.94807093    -0.88400
O1580       O  0.92300141  0.28680310  0.95351253    -0.75500
Mg1581     Mg  0.80619242  0.28940755  0.52869692     1.58000
O1582       O  0.79503329  0.38903317  0.96662001    -0.82900
H1583       H  0.84424619  0.13945618  0.55578367    -0.06600
O1584       O  0.92828090  0.22082969  0.51414459    -0.88100
H1585       H  0.95925428  0.27846785  0.51599002    -0.06400
H1586       H  0.87431379  0.10240802  0.95713024    -0.06600
C1587       C  0.93769932  0.26366602  0.52390612     0.87000
C1588       C  0.84504623  0.18073649  0.54935358     0.87600
C1589       C  0.88473649  0.12939497  0.97288558     0.87600
H1590       H  0.89836209  0.34956249  0.93896782    -0.06600
O1591       O  0.85829916  0.37286095  0.99681029    -0.75600
Mg1592     Mg  0.93833908  0.20355461  0.96817134     1.58000
H1593       H  0.87246647  0.38545706  0.53951248    -0.06600
C1594       C  0.92476895  0.20936675  0.60716894     0.92600
O1595       O  0.95098728  0.10515491  0.53022531    -0.82800
C1596       C  0.96446471  0.09564000  0.50547071     0.92600
O1597       O  0.79667514  0.30892469  0.57779831    -0.82800
Mg1598     Mg  0.83489067  0.33465982  0.95637215     1.58200
O1599       O  0.93242615  0.18186583  0.58439275    -0.81100
O1600       O  0.83735792  0.24024915  0.89300619    -0.82800
O1601       O  0.88027644  0.70468024  0.95189779    -0.88400
C1602       C  0.88918842  0.86230288  0.97411191     0.87600
Mg1603     Mg  0.84083936  0.65604246  0.96052728     1.58100
O1604       O  0.93341436  0.77474722  0.51720470    -0.88100
O1605       O  0.92962395  0.70555137  0.95748714    -0.75500
C1606       C  0.81346516  0.70530162  0.60351986     0.92700
O1607       O  0.82768780  0.79237965  0.95749792    -0.75300
O1608       O  0.79895339  0.69138242  0.58018100    -0.82800
Mg1609     Mg  0.87205116  0.78054361  0.93158422     1.58000
C1610       C  0.92849680  0.78757640  0.61019908     0.92600
O1611       O  0.91265127  0.77444647  0.90052434    -0.81100
H1612       H  0.96342980  0.71556555  0.51946002    -0.06400
C1613       C  0.84929990  0.81546660  0.55125220     0.87500
O1614       O  0.86317908  0.61992225  0.00189260    -0.75600
O1615       O  0.89800464  0.81814078  0.96596748    -0.88300
O1616       O  0.93599971  0.81664316  0.58795602    -0.81100
C1617       C  0.96814187  0.90175382  0.00659879     0.92700
C1618       C  0.93947487  0.79207786  0.89852541     0.92600
Mg1619     Mg  0.88146913  0.71631340  0.57113786     1.58000
O1620       O  0.84039300  0.72296244  0.60218915    -0.81100
O1621       O  0.92586878  0.70418519  0.54496427    -0.75300
O1622       O  0.96396822  0.87290112  0.98337029    -0.81100
O1623       O  0.84560339  0.74293636  0.89467898    -0.82900
O1624       O  0.78929764  0.62466257  0.51879038    -0.81200
C1625       C  0.94201729  0.73152769  0.52712442     0.87000
O1626       O  0.85567542  0.67895222  0.53675559    -0.88300
O1627       O  0.87407784  0.79247613  0.55096112    -0.88400
O1628       O  0.82483222  0.79188479  0.54424865    -0.75500
Mg1629     Mg  0.94385262  0.79051242  0.97096704     1.58000
O1630       O  0.95507750  0.89226319  0.53164184    -0.82900
H1631       H  0.90591534  0.64053034  0.94448242    -0.06600
O1632       O  0.82092435  0.72167817  0.98522302    -0.88100
H1633       H  0.79011137  0.77952708  0.98270477    -0.06400
H1634       H  0.87553316  0.60935151  0.54519965    -0.06600
C1635       C  0.81176459  0.76440682  0.97516399     0.87000
C1636       C  0.90509728  0.68192582  0.95079920     0.87600
C1637       C  0.86486473  0.63487832  0.52889808     0.87600
H1638       H  0.84847532  0.85706054  0.55713486    -0.06600
O1639       O  0.89168052  0.87713638  0.50119233    -0.75600
Mg1640     Mg  0.81004332  0.70692388  0.53110125     1.58000
H1641       H  0.87839167  0.88818262  0.95807330    -0.06600
C1642       C  0.82568687  0.70688184  0.89298953     0.92600
O1643       O  0.80023569  0.60348465  0.97123890    -0.82800
C1644       C  0.78593467  0.59514971  0.99570695     0.92600
O1645       O  0.95435668  0.80709397  0.92146161    -0.82800
Mg1646     Mg  0.91405090  0.84029959  0.54252661     1.58200
O1647       O  0.81872871  0.67871376  0.91564840    -0.81100
O1648       O  0.90799270  0.75280878  0.60806188    -0.82800
O1649       O  0.62383694  0.70826415  0.55181772    -0.88400
C1650       C  0.61562149  0.86529393  0.52794498     0.87600
Mg1651     Mg  0.66322084  0.65882545  0.54350368     1.58100
O1652       O  0.57103650  0.77770146  0.98527809    -0.88100
O1653       O  0.57461699  0.70946567  0.54504800    -0.75500
C1654       C  0.68980353  0.70343191  0.89971428     0.92700
O1655       O  0.67667223  0.79546341  0.54525384    -0.75300
O1656       O  0.70505033  0.69171964  0.92295963    -0.82800
Mg1657     Mg  0.63217634  0.78550456  0.57107752     1.58000
C1658       C  0.57518881  0.78656788  0.89300622     0.92600
O1659       O  0.59155940  0.78235057  0.60208890    -0.81100
H1660       H  0.54004913  0.72014786  0.98367315    -0.06400
C1661       C  0.65491411  0.81534103  0.95065162     0.87500
O1662       O  0.64093279  0.62165128  0.50229401    -0.75600
O1663       O  0.60634029  0.82170239  0.53636869    -0.88300
O1664       O  0.56908259  0.81799699  0.91466109    -0.81100
C1665       C  0.53659859  0.90509823  0.99501748     0.92700
C1666       C  0.56424550  0.79774470  0.60357317     0.92600
Mg1667     Mg  0.62172123  0.71507996  0.93226113     1.58000
O1668       O  0.66232236  0.71807888  0.90099707    -0.81100
O1669       O  0.57753225  0.70536212  0.95862329    -0.75300
O1670       O  0.54023037  0.87615788  0.51824372    -0.81100
O1671       O  0.65853130  0.74983021  0.60829511    -0.82900
O1672       O  0.71372250  0.62607769  0.98487149    -0.81200
C1673       C  0.56172274  0.73456909  0.97585206     0.87000
O1674       O  0.64789142  0.67965980  0.96692172    -0.88300
O1675       O  0.63010580  0.79257359  0.95122490    -0.88400
O1676       O  0.67928682  0.79220157  0.95832519    -0.75500
Mg1677     Mg  0.56040720  0.79410586  0.53118935     1.58000
O1678       O  0.55048056  0.89599149  0.97034144    -0.82900
H1679       H  0.59789214  0.64453429  0.55882443    -0.06600
O1680       O  0.68298460  0.72369578  0.51814310    -0.88100
H1681       H  0.71427925  0.78067559  0.52037347    -0.06400
H1682       H  0.62831292  0.60958580  0.95910433    -0.06600
C1683       C  0.69246814  0.76644406  0.52792244     0.87000
C1684       C  0.59893603  0.68581362  0.55242873     0.87600
C1685       C  0.63896214  0.63574088  0.97515568     0.87600
H1686       H  0.65579471  0.85657636  0.94414611    -0.06600
O1687       O  0.61361046  0.87920473  0.00075807    -0.75600
Mg1688     Mg  0.69366189  0.70784656  0.97218072     1.58000
H1689       H  0.62658037  0.89130753  0.54386333    -0.06600
C1690       C  0.67809263  0.71336139  0.61059408     0.92600
O1691       O  0.70396762  0.60560752  0.53275177    -0.82800
C1692       C  0.71748332  0.59673150  0.00786672     0.92600
O1693       O  0.54903926  0.81037564  0.58045362    -0.82800
Mg1694     Mg  0.59094877  0.84215711  0.95968532     1.58200
O1695       O  0.68474362  0.68243755  0.58884728    -0.81100
O1696       O  0.59460950  0.74976617  0.89506196    -0.82800
C1697       C  0.51242866  0.19376282  0.72202035     0.02200
C1698       C  0.98092296  0.18375356  0.72313701     0.02200
C1699       C  0.96672633  0.17645153  0.75091136    -0.18300
C1700       C  0.98331786  0.18031516  0.77755447     0.02200
C1701       C  0.51474007  0.19197977  0.77648554     0.02200
C1702       C  0.52903835  0.19789876  0.74857523    -0.18300
H1703       H  0.55283793  0.20800343  0.74743755     0.04200
H1704       H  0.94249743  0.16979935  0.75186764     0.04200
C1705       C  0.98525948  0.82238745  0.72496316     0.02200
C1706       C  0.51697483  0.81783932  0.72338273     0.02200
C1707       C  0.53399579  0.81505349  0.74980082    -0.18300
C1708       C  0.51968410  0.81615427  0.77792053     0.02200
C1709       C  0.98769112  0.82181743  0.77951670     0.02200
C1710       C  0.97083459  0.82474422  0.75299332    -0.18300
H1711       H  0.94633250  0.82643122  0.75416414     0.04200
H1712       H  0.55824770  0.80895827  0.74842137     0.04200
C1713       C  0.76499696  0.68109945  0.72320035     0.02200
C1714       C  0.73310532  0.68229682  0.72555691     0.02200
C1715       C  0.71918244  0.68183708  0.75382969    -0.18300
C1716       C  0.73680455  0.68139517  0.77988916     0.02200
C1717       C  0.76873777  0.67953955  0.77758960     0.02200
C1718       C  0.78257370  0.67824861  0.74923450    -0.18300
H1719       H  0.80704720  0.67756232  0.74742141     0.04200
H1720       H  0.69474595  0.68466726  0.75555948     0.04200
C1721       C  0.73270011  0.31824222  0.72095800     0.02200
C1722       C  0.76466653  0.31448223  0.72007571     0.02200
C1723       C  0.78116521  0.31244075  0.74681699    -0.18300
C1724       C  0.76602800  0.31220183  0.77442735     0.02200
C1725       C  0.73416348  0.31540482  0.77532779     0.02200
C1726       C  0.71772978  0.31976730  0.74867278    -0.18300
H1727       H  0.69322227  0.32167032  0.74949094     0.04200
H1728       H  0.80559412  0.30837078  0.74609154     0.04200
C1729       C  0.69068232  0.65563135  0.65362233    -0.20400
C1730       C  0.69226250  0.70580514  0.64008947    -0.06900
C1731       C  0.70462990  0.74898649  0.65614589     0.13900
C1732       C  0.71560558  0.74073069  0.68513568    -0.20400
C1733       C  0.71479983  0.69043390  0.69831926    -0.06900
C1734       C  0.70159227  0.64756730  0.68281463     0.13900
C1735       C  0.69926819  0.59356767  0.69701202    -0.23800
H1736       H  0.68042323  0.62297222  0.64151320     0.15200
H1737       H  0.72612414  0.77318156  0.69720302     0.15200
C1738       C  0.70759962  0.80327191  0.64235401    -0.23700
H1739       H  0.68848336  0.56439543  0.68171419     0.05400
H1740       H  0.68536619  0.59624672  0.71777203     0.08700
H1741       H  0.72207872  0.57851943  0.70289812     0.08700
H1742       H  0.68489708  0.82035198  0.63798884     0.08700
H1743       H  0.72053698  0.80044093  0.62099229     0.08700
H1744       H  0.71976151  0.83117173  0.65739267     0.05400
C1745       C  0.69919683  0.64983916  0.85434625    -0.20400
C1746       C  0.70328619  0.69785381  0.86975138    -0.06900
C1747       C  0.71630492  0.74148718  0.85490119     0.13900
C1748       C  0.72552287  0.73585244  0.82493584    -0.20400
C1749       C  0.72210501  0.68747677  0.80964953    -0.06900
C1750       C  0.70845863  0.64412036  0.82434688     0.13900
C1751       C  0.70399240  0.59187798  0.80850801    -0.23800
H1752       H  0.68837378  0.61696600  0.86575391     0.15200
H1753       H  0.73608527  0.76892830  0.81352285     0.15200
C1754       C  0.72049292  0.79377011  0.87073153    -0.23700
H1755       H  0.69335666  0.56197802  0.82344977     0.05400
H1756       H  0.72609883  0.57590954  0.80074893     0.08700
H1757       H  0.68904189  0.59751768  0.78881075     0.08700
H1758       H  0.73519635  0.78819979  0.89063110     0.08700
H1759       H  0.69818016  0.80947775  0.87813969     0.08700
H1760       H  0.73125815  0.82369045  0.85589115     0.05400
C1761       C  0.55830003  0.84801064  0.65067257    -0.20400
C1762       C  0.55100725  0.80291254  0.63366239    -0.06900
C1763       C  0.53570007  0.76033818  0.64727125     0.13900
C1764       C  0.52691452  0.76469898  0.67740767    -0.20400
C1765       C  0.53224420  0.81129375  0.69388216    -0.06900
C1766       C  0.54943120  0.85244765  0.68086903     0.13900
C1767       C  0.05977694  0.89961705  0.69930305    -0.23800
H1768       H  0.57161954  0.87925617  0.64044812     0.15200
H1769       H  0.51520748  0.73202184  0.68804568     0.15200
C1770       C  0.52874856  0.71041963  0.63002014    -0.23700
H1771       H  0.07222500  0.92884822  0.68534058     0.05400
H1772       H  0.57473528  0.88674309  0.71715179     0.08700
H1773       H  0.04016890  0.92004597  0.70970949     0.08700
H1774       H  0.55012626  0.69187262  0.62201539     0.08700
H1775       H  0.51432764  0.72009688  0.61042675     0.08700
H1776       H  0.51647917  0.68107271  0.64406787     0.05400
C1777       C  0.53184092  0.76015074  0.82180753    -0.20400
C1778       C  0.53760477  0.80660621  0.80549128    -0.06900
C1779       C  0.55733535  0.84520567  0.81744101     0.13900
C1780       C  0.56815099  0.83887396  0.84682559    -0.20400
C1781       C  0.56056113  0.79399105  0.86381715    -0.06900
C1782       C  0.54251736  0.75386511  0.85108403     0.13900
C1783       C  0.53357250  0.70541404  0.86873384    -0.23800
H1784       H  0.01698065  0.73036854  0.81254953     0.15200
H1785       H  0.58331859  0.86820650  0.85627912     0.15200
C1786       C  0.56782074  0.89187840  0.79904732    -0.23700
H1787       H  0.02074879  0.71959589  0.89013921     0.05400
H1788       H  0.55399114  0.68226582  0.87487737     0.08700
H1789       H  0.51836231  0.67904268  0.85568109     0.08700
H1790       H  0.54839645  0.91492422  0.79040022     0.08700
H1791       H  0.58139302  0.87748922  0.77966889     0.08700
H1792       H  0.58230327  0.91908210  0.81235689     0.05400
C1793       C  0.81410075  0.73727177  0.84143665    -0.20400
C1794       C  0.81124099  0.69741980  0.86334360    -0.06900
C1795       C  0.79676201  0.64911376  0.85547023     0.13900
C1796       C  0.78551939  0.64265499  0.82627924    -0.20400
C1797       C  0.78743036  0.68342566  0.80504811    -0.06900
C1798       C  0.80231357  0.73101170  0.81255624     0.13900
C1799       C  0.80484463  0.77613892  0.79057748    -0.23800
H1800       H  0.82525802  0.77422645  0.84700895     0.15200
H1801       H  0.77394944  0.60633960  0.82027635     0.15200
C1802       C  0.79284209  0.60406211  0.87732057    -0.23700
H1803       H  0.81619496  0.81119225  0.80060827     0.05400
H1804       H  0.78197831  0.78865234  0.78315868     0.08700
H1805       H  0.81842719  0.76347577  0.77083637     0.08700
H1806       H  0.77847249  0.61701051  0.89648372     0.08700
H1807       H  0.81528233  0.59066705  0.88550909     0.08700
H1808       H  0.78153702  0.56936635  0.86682670     0.05400
C1809       C  0.80311892  0.74041532  0.65443669    -0.20400
C1810       C  0.79976171  0.69908961  0.63357532    -0.06900
C1811       C  0.78645255  0.65083907  0.64282686     0.13900
C1812       C  0.77724580  0.64504135  0.67279625    -0.20400
C1813       C  0.77981430  0.68686532  0.69343357    -0.06900
C1814       C  0.79259788  0.73550297  0.68400715     0.13900
C1815       C  0.79442865  0.78367429  0.70401022    -0.27000
H1816       H  0.81345597  0.77736525  0.64739601     0.15200
H1817       H  0.76727909  0.60802067  0.68004614     0.15200
C1818       C  0.78257761  0.60489054  0.62149015    -0.23700
H1819       H  0.78237053  0.81725532  0.69326693     0.05400
H1820       H  0.81850569  0.79481087  0.70726434     0.08700
H1821       H  0.78394483  0.77757655  0.72630301     0.08700
H1822       H  0.80487993  0.59319119  0.61196751     0.08700
H1823       H  0.76704607  0.61625862  0.60306993     0.08700
H1824       H  0.77271266  0.56972888  0.63285196     0.05400
C1825       C  0.96244719  0.84897722  0.85954896    -0.20400
C1826       C  0.95217016  0.79860050  0.86809464    -0.06900
C1827       C  0.95056149  0.75766196  0.84638822     0.13900
C1828       C  0.96007014  0.76782237  0.81689796    -0.20400
C1829       C  0.97165574  0.81748032  0.80874283    -0.06900
C1830       C  0.97174213  0.85912086  0.82995830     0.13900
C1831       C  0.48004135  0.91406706  0.82114725    -0.23800
H1832       H  0.96238417  0.88088660  0.87590094     0.15200
H1833       H  0.96006375  0.73605260  0.80045507     0.15200
C1834       C  0.94014990  0.70259530  0.85449016    -0.23700
H1835       H  0.47754157  0.94239632  0.84012468     0.05400
H1836       H  0.46513735  0.92742685  0.80263523     0.08700
H1837       H  0.50379817  0.91529741  0.81353082     0.08700
H1838       H  0.91597225  0.70317141  0.86130228     0.08700
H1839       H  0.95410083  0.68704937  0.87319014     0.08700
H1840       H  0.94237557  0.67475629  0.83524981     0.05400
C1841       C  0.95049064  0.84782585  0.64858168    -0.20400
C1842       C  0.94260414  0.79598372  0.63999546    -0.06900
C1843       C  0.94604947  0.75416585  0.66098812     0.13900
C1844       C  0.95750418  0.76536162  0.68957680    -0.20400
C1845       C  0.96676908  0.81654223  0.69745092    -0.06900
C1846       C  0.96229195  0.85862012  0.67717931     0.13900
C1847       C  0.96934185  0.91486777  0.68592324    -0.23800
H1848       H  0.94697293  0.88018753  0.63302475     0.15200
H1849       H  0.46093116  0.73360298  0.70533256     0.15200
C1850       C  0.93927257  0.69714856  0.65318532    -0.23700
H1851       H  0.96349632  0.94323023  0.66781821     0.05400
H1852       H  0.99373120  0.91892351  0.69060073     0.08700
H1853       H  0.95621030  0.92582445  0.70631611     0.08700
H1854       H  0.95179246  0.68563403  0.63250914     0.08700
H1855       H  0.91460365  0.69156464  0.64989230     0.08700
H1856       H  0.44615745  0.67023466  0.67110725     0.05400
C1857       C  0.79496985  0.25318108  0.64858766    -0.20400
C1858       C  0.79864176  0.29849706  0.63083449    -0.06900
C1859       C  0.79489089  0.34923619  0.64373040     0.13900
C1860       C  0.78638447  0.35336402  0.67396699    -0.20400
C1861       C  0.78051742  0.30795983  0.69108532    -0.06900
C1862       C  0.78571104  0.25721003  0.67857260     0.13900
C1863       C  0.78164083  0.20666444  0.69608295    -0.23800
H1864       H  0.79920658  0.21434808  0.63891416     0.15200
H1865       H  0.78288403  0.39213895  0.68395290     0.15200
C1866       C  0.80035589  0.39890773  0.62580455    -0.23700
H1867       H  0.80342762  0.18468233  0.69660106     0.05400
H1868       H  0.76438120  0.18148417  0.68496336     0.08700
H1869       H  0.77439900  0.21354823  0.71960253     0.08700
H1870       H  0.78454064  0.40037227  0.60653674     0.08700
H1871       H  0.82402545  0.39932474  0.61731513     0.08700
H1872       H  0.79673704  0.43520741  0.63953332     0.05400
C1873       C  0.80521602  0.33631497  0.84855108    -0.20400
C1874       C  0.80394807  0.28540366  0.86113754    -0.06900
C1875       C  0.79213616  0.24288574  0.84413557     0.13900
C1876       C  0.78212329  0.25236557  0.81486432    -0.20400
C1877       C  0.78299583  0.30336457  0.80246850    -0.06900
C1878       C  0.79491404  0.34586028  0.81936395     0.13900
C1879       C  0.79655218  0.40169866  0.80752535    -0.23800
H1880       H  0.81474333  0.36877226  0.86141787     0.15200
H1881       H  0.77235679  0.22026999  0.80191493     0.15200
C1882       C  0.78866112  0.18814085  0.85719099    -0.23700
H1883       H  0.78307925  0.42844714  0.82224315     0.05400
H1884       H  0.78781174  0.40534637  0.78434565     0.08700
H1885       H  0.82047541  0.41518109  0.80748446     0.08700
H1886       H  0.77498562  0.19028818  0.87812600     0.08700
H1887       H  0.81117141  0.17082579  0.86215500     0.08700
H1888       H  0.77698790  0.16085109  0.84142699     0.05400
C1889       C  0.93450237  0.23885525  0.65946290    -0.20400
C1890       C  0.93920897  0.20040805  0.63690403    -0.06900
C1891       C  0.95540032  0.15348407  0.64423518     0.13900
C1892       C  0.96658934  0.14713901  0.67345207    -0.20400
C1893       C  0.96270459  0.18654819  0.69533949    -0.06900
C1894       C  0.94603896  0.23254708  0.68844971     0.13900
C1895       C  0.94120268  0.27585150  0.71138853    -0.23800
H1896       H  0.92197080  0.27465829  0.65438737     0.15200
H1897       H  0.47906093  0.11215339  0.67924984     0.15200
C1898       C  0.96114409  0.10969029  0.62180756    -0.23700
H1899       H  0.92828353  0.30973134  0.70200114     0.05400
H1900       H  0.96333382  0.29106786  0.71935551     0.08700
H1901       H  0.92822356  0.26010062  0.73077445     0.08700
H1902       H  0.97512390  0.12481512  0.60293301     0.08700
H1903       H  0.93930531  0.09409407  0.61327811     0.08700
H1904       H  0.47289237  0.07572045  0.63227249     0.05400
C1905       C  0.96084266  0.14766600  0.85746364    -0.20400
C1906       C  0.94522816  0.19405760  0.86547956    -0.06900
C1907       C  0.93920094  0.23289430  0.84336955     0.13900
C1908       C  0.95003801  0.22512797  0.81412563    -0.20400
C1909       C  0.96682320  0.17987441  0.80651763    -0.06900
C1910       C  0.97113368  0.13957482  0.82799605     0.13900
C1911       C  0.48518832  0.08753223  0.81938531    -0.23800
H1912       H  0.96424179  0.11701876  0.87412775     0.15200
H1913       H  0.94683522  0.25581102  0.79742759     0.15200
C1914       C  0.92258397  0.28366939  0.85065584    -0.23700
H1915       H  0.48561476  0.05954442  0.83858057     0.05400
H1916       H  0.50873230  0.09358671  0.81185756     0.08700
H1917       H  0.47211183  0.06890934  0.80093615     0.08700
H1918       H  0.93398867  0.30440413  0.86948630     0.08700
H1919       H  0.89873261  0.27512991  0.85683011     0.08700
H1920       H  0.92212517  0.31105217  0.83118018     0.05400
C1921       C  0.71925868  0.35062069  0.82499063    -0.20400
C1922       C  0.71809457  0.30897478  0.80418105    -0.06900
C1923       C  0.70613805  0.25947236  0.81287282     0.13900
C1924       C  0.69538285  0.25311296  0.84214550    -0.20400
C1925       C  0.69667189  0.29448758  0.86334924    -0.06900
C1926       C  0.70905663  0.34403201  0.85459700     0.13900
C1927       C  0.71133652  0.39046857  0.87584109    -0.23800
H1928       H  0.72901192  0.38812390  0.81813498     0.15200
H1929       H  0.68607790  0.21494804  0.84847038     0.15200
C1930       C  0.70527684  0.21188426  0.79230707    -0.23700
H1931       H  0.72115781  0.42593424  0.86474420     0.05400
H1932       H  0.72629599  0.38015626  0.89492097     0.08700
H1933       H  0.68848398  0.40148754  0.88425697     0.08700
H1934       H  0.71559686  0.21931006  0.77006418     0.08700
H1935       H  0.68142138  0.19951042  0.78886921     0.08700
H1936       H  0.71789972  0.17860473  0.80270521     0.05400
C1937       C  0.68815180  0.26684253  0.65450363    -0.20400
C1938       C  0.69221692  0.30842538  0.63403645    -0.06900
C1939       C  0.70655431  0.35563197  0.64348717     0.13900
C1940       C  0.71694672  0.35957028  0.67307468    -0.20400
C1941       C  0.71496460  0.31651197  0.69279995    -0.06900
C1942       C  0.69965157  0.27006821  0.68373228     0.13900
C1943       C  0.69572191  0.22369756  0.70462139    -0.23800
H1944       H  0.67647390  0.23122141  0.64734580     0.15200
H1945       H  0.72793678  0.39563811  0.68052199     0.15200
C1946       C  0.71066117  0.40210915  0.62267254    -0.23700
H1947       H  0.68412572  0.18996983  0.69347422     0.05400
H1948       H  0.68178577  0.23579961  0.72423879     0.08700
H1949       H  0.71806417  0.20957319  0.71251508     0.08700
H1950       H  0.68832056  0.41528006  0.61410829     0.08700
H1951       H  0.72546293  0.39066036  0.60354597     0.08700
H1952       H  0.72146551  0.43628839  0.63417795     0.05400
C1953       C  0.56641582  0.16931618  0.84311681    -0.20400
C1954       C  0.55404213  0.20554876  0.86374189    -0.06900
C1955       C  0.53213533  0.24233013  0.85420932     0.13900
C1956       C  0.52225905  0.24067648  0.82441253    -0.20400
C1957       C  0.53214774  0.20077101  0.80458330    -0.06900
C1958       C  0.55569194  0.16629177  0.81354922     0.13900
C1959       C  0.56927765  0.12586910  0.79238626    -0.23800
H1960       H  0.58420689  0.14268170  0.85038235     0.15200
H1961       H  0.00546530  0.26899265  0.81688696     0.15200
C1962       C  0.51921090  0.28323339  0.87537864    -0.23700
H1963       H  0.58600577  0.10014476  0.80389392     0.05400
H1964       H  0.58129704  0.14628509  0.77385100     0.08700
H1965       H  0.55148675  0.09997279  0.78278943     0.08700
H1966       H  0.53768433  0.30855130  0.88427196     0.08700
H1967       H  0.50752764  0.26321983  0.89431212     0.08700
H1968       H  0.00230238  0.30897483  0.86409193     0.05400
C1969       C  0.52318836  0.25065339  0.67818486    -0.20400
C1970       C  0.52758637  0.20219496  0.69286831    -0.06900
C1971       C  0.54260069  0.16027811  0.67802553     0.13900
C1972       C  0.55237272  0.16746468  0.64837548    -0.20400
C1973       C  0.54809201  0.21599409  0.63369405    -0.06900
C1974       C  0.53336450  0.25816566  0.64871044     0.13900
C1975       C  0.52765559  0.31047563  0.63346457    -0.23800
H1976       H  0.01059248  0.28179379  0.68934488     0.15200
H1977       H  0.56441390  0.13575984  0.63696372     0.15200
C1978       C  0.54836206  0.10821211  0.69352420    -0.23700
H1979       H  0.01377821  0.33728787  0.64758806     0.05400
H1980       H  0.51448885  0.30384705  0.61261722     0.08700
H1981       H  0.54942891  0.32998407  0.62780795     0.08700
H1982       H  0.52666804  0.09007669  0.70074226     0.08700
H1983       H  0.56270540  0.11492130  0.71357602     0.08700
H1984       H  0.56022255  0.07958186  0.67857089     0.05400
loop_ 
_geom_bond_atom_site_label_1 
_geom_bond_atom_site_label_2 
_geom_bond_distance 
_geom_bond_site_symmetry_2 
_ccdc_geom_bond_type 
C1            C2   1.419       .  A
C1          C502   1.405       .  A
C1          C204   1.477       .  S
C2            C3   1.406       .  A
C2          C156   1.482       .  S
C3          C500   1.403       .  A
C3            H8   1.085       .  S
C4            C5   1.411       .  A
C4          C499   1.403       .  A
C4           C81   1.476       .  S
C5            C6   1.402   1_556  A
C5           C60   1.474       .  S
C6          C497   1.405       .  A
C6            H7   1.085       .  S
C9           C14   1.409   1_565  A
C9         C1002   1.419   1_456  A
C9          C673   1.480       .  S
C10          C11   1.402       .  A
C10        C1001   1.419   1_554  A
C10         C625   1.479       .  S
C11          C12   1.401   1_565  A
C11          H16   1.086       .  S
C12        C1005   1.412   1_554  A
C12         C108   1.473       .  S
C13          C14   1.406       .  A
C13        C1004   1.412   1_456  A
C13          C33   1.479   1_556  S
C14          H15   1.085       .  S
O17         Mg19   2.165       .  S
O17         Mg25   2.158       .  S
O17          C52   1.239       .  S
C18          H57   1.081       .  S
C18          O31   1.233       .  S
C18         O551   1.267       .  A
Mg19         O48   2.160       .  S
Mg19         O63   2.308       .  S
Mg19         O59   2.286       .  S
Mg19         O30   2.289       .  S
O20         Mg62   2.157       .  S
O20        Mg541   2.135   1_554  S
O20          C41   1.237       .  S
O21          C52   1.273       .  A
O21         Mg45   2.310       .  S
C22         C450   1.473       .  S
C22          O24   1.271       .  A
C22          O36   1.272       .  A
O23          C51   1.269       .  A
O23         Mg25   2.292       .  S
O24         Mg56   2.262       .  S
Mg25         O31   2.128       .  S
Mg25         O39   2.219       .  S
Mg25         O27   2.263       .  S
C26         C485   1.466       .  S
C26          O64   1.266       .  A
C26          O32   1.276       .  A
O27          C34   1.268       .  A
H28          C41   1.081       .  S
C29          H54   1.081       .  S
C29          O43   1.238       .  S
C29          O44   1.272       .  A
O30         C549   1.266       .  A
O31         Mg45   2.157       .  S
O32         Mg62   2.313       .  S
C33          O46   1.276       .  A
C33         O534   1.279   1_554  A
C34         C466   1.469       .  S
C34          O61   1.273       .  A
Mg35         O42   2.127       .  S
Mg35         O43   2.156       .  S
Mg35         O36   2.285       .  S
Mg35         O37   2.291       .  S
Mg35         O64   2.219       .  S
O37          C41   1.270       .  A
O38         C529   1.279       .  A
O38         Mg45   2.338       .  S
O39          C58   1.267       .  A
O40          C60   1.275   1_554  A
O40         Mg56   2.312       .  S
O42         Mg56   2.148       .  S
O42          C53   1.233       .  S
O43         Mg62   2.158       .  S
O44         Mg56   2.306       .  S
Mg45        O516   2.135       .  S
Mg45         O61   2.280       .  S
O46         Mg62   2.285       .  S
H47          C52   1.081       .  S
O48        Mg552   2.133       .  S
O48          C51   1.236       .  S
H49          C51   1.081       .  S
H50          C53   1.081       .  S
C53         O526   1.266   1_554  A
O55         C514   1.267   1_554  A
O55         Mg62   2.290       .  S
Mg56        O544   2.133   1_554  S
C58         C437   1.484       .  S
C58          O63   1.274       .  A
O59         C556   1.276       .  A
C60         O555   1.276       .  A
O65         Mg67   2.158       .  S
O65         Mg73   2.142       .  S
O65         C100   1.239       .  S
C66         H105   1.081       .  S
C66          O79   1.232       .  S
C66         O599   1.266   1_554  A
Mg67         O96   2.170       .  S
Mg67        O111   2.303       .  S
Mg67        O107   2.264       .  S
Mg67         O78   2.285       .  S
O68        Mg110   2.172       .  S
O68        Mg589   2.130       .  S
O68          C89   1.237       .  S
O69         C100   1.275       .  A
O69         Mg93   2.321       .  S
C70         C418   1.473       .  S
C70          O72   1.275       .  A
C70          O84   1.267       .  A
O71          C99   1.270       .  A
O71         Mg73   2.293       .  S
O72        Mg104   2.289       .  S
Mg73         O79   2.136       .  S
Mg73         O87   2.232       .  S
Mg73         O75   2.259       .  S
C74         C386   1.472       .  S
C74         O112   1.266       .  A
C74          O80   1.275       .  A
O75          C82   1.267       .  A
H76          C89   1.081       .  S
C77         H102   1.081       .  S
C77          O91   1.237       .  S
C77          O92   1.271       .  A
O78         C597   1.265   1_554  A
O79         Mg93   2.144       .  S
O80        Mg110   2.306       .  S
C81          O86   1.279   1_556  A
C81         O590   1.275       .  A
C82         C370   1.465       .  S
C82         O109   1.272       .  A
Mg83         O90   2.128       .  S
Mg83         O91   2.153       .  S
Mg83         O84   2.249       .  S
Mg83         O85   2.286       .  S
Mg83        O112   2.228       .  S
O85          C89   1.269       .  A
O86         Mg93   2.329       .  S
O87         C106   1.267       .  A
O88         C604   1.279       .  A
O88        Mg104   2.325       .  S
O90        Mg104   2.160       .  S
O90         C101   1.232       .  S
O91        Mg110   2.149       .  S
O92        Mg104   2.303       .  S
Mg93        O564   2.130   1_554  S
Mg93        O109   2.279       .  S
O94         C577   1.275       .  A
O94        Mg110   2.276       .  S
H95         C100   1.081       .  S
O96        Mg600   2.137   1_554  S
O96          C99   1.237       .  S
H97          C99   1.081       .  S
H98         C101   1.081       .  S
C101        O574   1.265       .  A
O103        C562   1.266       .  A
O103       Mg110   2.292       .  S
Mg104       O592   2.137       .  S
C106        C402   1.490       .  S
C106        O111   1.272       .  A
O107        C108   1.274       .  A
C108        O584   1.279   1_554  A
O113       Mg115   2.165       .  S
O113       Mg121   2.150       .  S
O113        C148   1.238       .  S
C114        H153   1.081       .  S
C114        O127   1.233       .  S
C114        O647   1.267       .  A
Mg115       O144   2.169       .  S
Mg115       O159   2.305       .  S
Mg115       O155   2.281       .  S
Mg115       O126   2.286       .  S
O116       Mg158   2.172       .  S
O116       Mg637   2.149   1_554  S
O116        C137   1.237       .  S
O117        C148   1.273       .  A
O117       Mg141   2.312       .  S
C118        C322   1.477       .  S
C118        O120   1.273       .  A
C118        O132   1.272       .  A
O119        C147   1.270       .  A
O119       Mg121   2.289       .  S
O120       Mg152   2.276       .  S
Mg121       O127   2.137       .  S
Mg121       O135   2.231       .  S
Mg121       O123   2.266       .  S
C122        C354   1.483       .  S
C122        O160   1.265       .  A
C122        O128   1.277       .  A
O123        C130   1.269       .  A
H124        C137   1.081       .  S
C125        H150   1.081       .  S
C125        O139   1.238       .  S
C125        O140   1.274       .  A
O126        C645   1.265       .  A
O127       Mg141   2.152       .  S
O128       Mg158   2.327       .  S
C129        C506   1.479       .  S
C129        O134   1.278       .  A
C129        O638   1.277       .  A
C130        C338   1.475       .  S
C130        O157   1.274       .  A
Mg131       O138   2.131       .  S
Mg131       O139   2.148       .  S
Mg131       O132   2.283       .  S
Mg131       O133   2.298       .  S
Mg131       O160   2.221       .  S
O133        C137   1.271       .  A
O134       Mg141   2.327       .  S
O135        C154   1.268       .  A
O136        C652   1.279   1_554  A
O136       Mg152   2.335       .  S
O138       Mg152   2.150       .  S
O138        C149   1.232       .  S
O139       Mg158   2.171       .  S
O140       Mg152   2.316       .  S
Mg141       O612   2.149       .  S
Mg141       O157   2.293       .  S
O142        C625   1.277       .  A
O142       Mg158   2.288       .  S
H143        C148   1.081       .  S
O144       Mg648   2.133       .  S
O144        C147   1.237       .  S
H145        C147   1.081       .  S
H146        C149   1.081       .  S
C149        O622   1.265       .  A
O151        C610   1.267   1_554  A
O151       Mg158   2.292       .  S
Mg152       O640   2.133   1_554  S
C154        C306   1.488       .  S
C154        O159   1.273       .  A
O155        C156   1.276       .  A
C156        O632   1.279       .  A
O161       Mg163   2.169       .  S
O161       Mg169   2.160       .  S
O161        C196   1.238       .  S
C162        H201   1.081       .  S
C162        O175   1.233       .  S
C162        O695   1.266       .  A
Mg163       O192   2.173       .  S
Mg163       O207   2.315       .  S
Mg163       O203   2.294       .  S
Mg163       O174   2.287       .  S
O164       Mg206   2.173       .  S
O164       Mg685   2.136       .  S
O164        C185   1.236       .  S
O165        C196   1.273       .  A
O165       Mg189   2.310       .  S
C166        C258   1.466       .  S
C166        O168   1.273       .  A
C166        O180   1.269       .  A
O167        C195   1.269       .  A
O167       Mg169   2.287       .  S
O168       Mg200   2.283       .  S
Mg169       O175   2.132       .  S
Mg169       O183   2.221       .  S
Mg169       O171   2.259       .  S
C170        C293   1.467       .  S
C170        O208   1.267       .  A
C170        O176   1.275       .  A
O171        C178   1.268       .  A
H172        C185   1.081       .  S
C173        H198   1.081       .  S
C173        O187   1.238       .  S
C173        O188   1.273       .  A
O174        C693   1.266   1_554  A
O175       Mg189   2.159       .  S
O176       Mg206   2.310       .  S
C177        C505   1.480       .  S
C177        O190   1.277       .  A
C177        O678   1.278       .  A
C178        C274   1.466       .  S
C178        O205   1.273       .  A
Mg179       O186   2.132       .  S
Mg179       O187   2.160       .  S
Mg179       O180   2.268       .  S
Mg179       O181   2.288       .  S
Mg179       O208   2.232       .  S
O181        C185   1.269       .  A
O182        C673   1.278   1_554  A
O182       Mg189   2.327       .  S
O183        C202   1.266       .  A
O184        C204   1.277       .  A
O184       Mg200   2.316       .  S
O186       Mg200   2.157       .  S
O186        C197   1.233       .  S
O187       Mg206   2.164       .  S
O188       Mg200   2.307       .  S
Mg189       O660   2.136   1_554  S
Mg189       O205   2.286       .  S
O190       Mg206   2.290       .  S
H191        C196   1.081       .  S
O192       Mg696   2.136   1_554  S
O192        C195   1.236       .  S
H193        C195   1.081       .  S
H194        C197   1.081       .  S
C197        O670   1.266       .  A
O199        C658   1.266       .  A
O199       Mg206   2.287       .  S
Mg200       O688   2.137       .  S
C202        C242   1.471       .  S
C202        O207   1.276       .  A
O203        C700   1.278       .  A
C204        O699   1.278       .  A
C209        C214   1.399       .  A
C209       C1202   1.410   1_455  A
C209        C482   1.475       .  S
C210        C211   1.398       .  A
C210       C1201   1.410       .  A
C210        C405   1.481       .  S
C211        C212   1.401       .  A
C211        H216   1.084       .  S
C212       C1205   1.420       .  A
C212        C421   1.480       .  S
C213        C214   1.401       .  A
C213       C1204   1.420   1_455  A
C213        C469   1.489       .  S
C214        H215   1.083       .  S
C217        C222   1.401       .  A
C217       C1210   1.417       .  A
C217        C357   1.483       .  S
C218        C219   1.401       .  A
C218       C1209   1.416   1_455  A
C218        C277   1.484       .  S
C219        C220   1.402       .  A
C219        H224   1.083       .  S
C220       C1213   1.418   1_455  A
C220        C290   1.485       .  S
C221        C222   1.401       .  A
C221       C1212   1.418       .  A
C221        C341   1.485       .  S
C222        H223   1.084       .  S
C225        C226   1.412       .  A
C225        C230   1.401       .  A
C225        C325   1.485       .  S
C226        C227   1.400       .  A
C226        C245   1.476       .  S
C227        C228   1.401       .  A
C227        H232   1.084       .  S
C228        C229   1.414       .  A
C228        C261   1.481       .  S
C229        C230   1.402       .  A
C229        C309   1.482       .  S
C230        H231   1.084       .  S
C233        C234   1.415       .  A
C233        C238   1.399       .  A
C233        C453   1.483       .  S
C234        C235   1.400       .  A
C234        C373   1.476       .  S
C235        C236   1.398       .  A
C235        H240   1.084       .  S
C236        C237   1.410       .  A
C236        C389   1.477       .  S
C237        C238   1.399       .  A
C237        C434   1.476       .  S
C238        H239   1.084       .  S
C241        C242   1.405       .  A
C241        C246   1.404       .  A
C241        H248   1.084       .  S
C242        C243   1.413       .  A
C243        C244   1.398       .  A
C243        C250   1.508       .  S
C244        C245   1.400       .  A
C244        H249   1.084       .  S
C245        C246   1.410       .  A
C246        C247   1.507       .  S
C247        H251   1.111       .  S
C247        H252   1.110       .  S
C247        H253   1.109       .  S
C250        H254   1.109       .  S
C250        H255   1.110       .  S
C250        H256   1.111       .  S
C257        C258   1.403       .  A
C257        C262   1.404       .  A
C257        H264   1.084       .  S
C258        C259   1.408       .  A
C259        C260   1.401       .  A
C259        C266   1.506       .  S
C260        C261   1.404       .  A
C260        H265   1.083       .  S
C261        C262   1.411       .  A
C262        C263   1.507       .  S
C263        H267   1.111       .  S
C263        H268   1.109       .  S
C263        H269   1.110       .  S
C266        H270   1.110       .  S
C266        H271   1.110       .  S
C266        H272   1.111       .  S
C273        C274   1.404       .  A
C273        C278   1.404       .  A
C273        H280   1.084       .  S
C274        C275   1.407       .  A
C275        C276   1.400       .  A
C275        C282   1.506       .  S
C276        C277   1.404       .  A
C276        H281   1.083       .  S
C277        C278   1.411       .  A
C278       C1271   1.509       .  S
C279       C1270   1.508       .  S
C279        H283   1.111       .  S
C279        H285   1.107       .  S
C279       H1276   1.110       .  S
C282        H286   1.110       .  S
C282        H287   1.110       .  S
C282        H288   1.111       .  S
H284       C1271   1.110       .  S
C289        C290   1.404       .  A
C289        C294   1.399       .  A
C289       H1288   1.083       .  S
C290        C291   1.412       .  A
C291        C292   1.405       .  A
C291        C298   1.509       .  S
C292        C293   1.404       .  A
C292        H297   1.084       .  S
C293        C294   1.408       .  A
C294        C295   1.507       .  S
C295        H300   1.109       .  S
C295        H301   1.111       .  S
C295       H1291   1.111       .  S
H296       C1281   1.083       .  S
C298        H302   1.107       .  S
C298        H303   1.109       .  S
C298        H304   1.111       .  S
H299       C1287   1.111       .  S
C305        C306   1.409       .  A
C305        C310   1.399       .  A
C305        H312   1.084       .  S
C306        C307   1.420       .  A
C307        C308   1.404       .  A
C307        C314   1.508       .  S
C308        C309   1.402       .  A
C308        H313   1.083       .  S
C309        C310   1.409       .  A
C310        C311   1.508       .  S
C311        H315   1.111       .  S
C311        H316   1.110       .  S
C311        H317   1.109       .  S
C314        H318   1.110       .  S
C314        H319   1.110       .  S
C314        H320   1.111       .  S
C321        C322   1.404       .  A
C321        C326   1.402       .  A
C321        H328   1.085       .  S
C322        C323   1.414       .  A
C323        C324   1.403       .  A
C323        C330   1.507       .  S
C324        C325   1.403       .  A
C324        H329   1.082       .  S
C325        C326   1.415       .  A
C326        C327   1.507       .  S
C327        H331   1.111       .  S
C327        H332   1.110       .  S
C327        H333   1.106       .  S
C330        H334   1.110       .  S
C330        H335   1.110       .  S
C330        H336   1.111       .  S
C337        C338   1.403       .  A
C337        C342   1.404       .  A
C337        H344   1.084       .  S
C338        C339   1.415       .  A
C339        C340   1.403       .  A
C339        C346   1.508       .  S
C340        C341   1.402       .  A
C340        H345   1.084       .  S
C341        C342   1.411       .  A
C342       C1335   1.504       .  S
C343       C1334   1.504       .  S
C343        H347   1.111       .  S
C343        H348   1.110       .  S
C343        H349   1.102   1_655  S
C346        H350   1.109       .  S
C346        H351   1.111       .  S
C346        H352   1.111       .  S
C353        C354   1.406       .  A
C353        C358   1.405       .  A
C353        H360   1.084       .  S
C354        C355   1.420       .  A
C355        C356   1.401       .  A
C355        C362   1.509       .  S
C356        C357   1.399       .  A
C356       H1353   1.084       .  S
C357        C358   1.410       .  A
C358        C359   1.503       .  S
C359        H363   1.111       .  S
C359        H364   1.103       .  S
C359        H365   1.110       .  S
H361       C1348   1.084       .  S
C362        H366   1.111       .  S
C362        H367   1.109       .  S
C362       H1360   1.111       .  S
H368       C1354   1.111       .  S
C369        C370   1.401       .  A
C369        C374   1.399       .  A
C369        H376   1.085       .  S
C370        C371   1.411       .  A
C371        C372   1.401       .  A
C371        C378   1.507       .  S
C372        C373   1.401       .  A
C372        H377   1.084       .  S
C373        C374   1.413       .  A
C374        C375   1.507       .  S
C375        H379   1.110       .  S
C375        H380   1.110       .  S
C375        H381   1.108       .  S
C378        H382   1.110       .  S
C378        H383   1.110       .  S
C378        H384   1.111       .  S
C385        C386   1.404       .  A
C385        C390   1.401       .  A
C385        H392   1.085       .  S
C386        C387   1.413       .  A
C387        C388   1.400       .  A
C387        C394   1.508       .  S
C388        C389   1.402       .  A
C388        H393   1.084       .  S
C389        C390   1.412       .  A
C390        C391   1.507       .  S
C391        H395   1.110       .  S
C391        H396   1.108       .  S
C391        H397   1.110       .  S
C394        H398   1.111       .  S
C394        H399   1.109       .  S
C394        H400   1.111       .  S
C401        C402   1.409       .  A
C401        C406   1.400       .  A
C401        H408   1.083       .  S
C402        C403   1.421       .  A
C403        C404   1.404       .  A
C403        C410   1.508       .  S
C404        C405   1.401       .  A
C404       H1401   1.082       .  S
C405        C406   1.408       .  A
C406        C407   1.508       .  S
C407        H411   1.111       .  S
C407        H412   1.110       .  S
C407        H413   1.110       .  S
H409       C1396   1.083       .  S
C410        H414   1.110       .  S
C410        H415   1.110       .  S
C410       H1408   1.111       .  S
H416       C1402   1.111       .  S
C417        C418   1.402       .  A
C417        C422   1.402       .  A
C417        H424   1.084       .  S
C418        C419   1.417       .  A
C419        C420   1.400       .  A
C419        C426   1.509       .  S
C420        C421   1.400       .  A
C420        H425   1.085       .  S
C421        C422   1.411       .  A
C422       C1415   1.505       .  S
C423       C1414   1.505       .  S
C423        H427   1.111       .  S
C423        H428   1.102   1_655  S
C423        H429   1.110       .  S
C426        H430   1.110       .  S
C426        H431   1.109       .  S
C426        H432   1.111       .  S
C433        C434   1.400       .  A
C433        C438   1.403       .  A
C433        H440   1.084       .  S
C434        C435   1.411       .  A
C435        C436   1.396       .  A
C435        C442   1.509       .  S
C436        C437   1.407       .  A
C436        H441   1.085       .  S
C437        C438   1.420       .  A
C438        C439   1.508       .  S
C439        H443   1.111       .  S
C439        H444   1.110       .  S
C439        H445   1.110       .  S
C442        H446   1.106       .  S
C442        H447   1.110       .  S
C442        H448   1.110       .  S
C449        C450   1.403       .  A
C449        C454   1.402       .  A
C449        H456   1.084       .  S
C450        C451   1.413       .  A
C451        C452   1.401       .  A
C451        C458   1.508       .  S
C452        C453   1.402       .  A
C452        H457   1.083       .  S
C453        C454   1.412       .  A
C454        C455   1.507       .  S
C455        H459   1.111       .  S
C455        H460   1.109       .  S
C455        H461   1.108       .  S
C458        H462   1.110       .  S
C458        H463   1.110       .  S
C458        H464   1.111       .  S
C465        C466   1.403       .  A
C465        C470   1.404       .  A
C465        H472   1.084       .  S
C466        C467   1.407       .  A
C467        C468   1.400       .  A
C467        C474   1.506       .  S
C468        C469   1.406       .  A
C468       H1465   1.083       .  S
C469        C470   1.414       .  A
C470        C471   1.509       .  S
C471        H475   1.111       .  S
C471        H476   1.108       .  S
C471        H477   1.109       .  S
H473       C1460   1.083       .  S
C474        H478   1.110       .  S
C474        H479   1.110       .  S
C474       H1472   1.111       .  S
H480       C1466   1.111       .  S
C481        C482   1.402       .  A
C481        C486   1.400       .  A
C481       H1480   1.083       .  S
C482        C483   1.409       .  A
C483        C484   1.401       .  A
C483        C490   1.507       .  S
C484        C485   1.402       .  A
C484        H489   1.084       .  S
C485        C486   1.412       .  A
C486        C487   1.507       .  S
C487        H492   1.110       .  S
C487        H493   1.109       .  S
C487       H1483   1.111       .  S
H488       C1473   1.083       .  S
C490        H494   1.109       .  S
C490        H495   1.110       .  S
C490        H496   1.111       .  S
H491       C1479   1.111       .  S
C497        C498   1.419   1_554  A
C497        C700   1.477       .  S
C498        C499   1.406       .  A
C498        C652   1.482       .  S
C499        H504   1.085       .  S
C500        C501   1.411       .  A
C500        C577   1.476       .  S
C501        C502   1.402       .  A
C501        C556   1.474       .  S
C502        H503   1.085       .  S
C505       C1498   1.419   1_455  A
C505        C510   1.409   1_565  A
C506       C1497   1.419       .  A
C506        C507   1.402       .  A
C507        C508   1.401   1_565  A
C507        H512   1.086       .  S
C508       C1501   1.412       .  A
C508        C604   1.473       .  S
C509       C1500   1.412   1_455  A
C509        C510   1.406       .  A
C509        C529   1.479       .  S
C510        H511   1.085       .  S
O513       Mg515   2.165       .  S
O513       Mg521   2.158       .  S
O513        C548   1.239       .  S
C514        H553   1.081       .  S
C514        O527   1.233       .  S
Mg515       O544   2.160       .  S
Mg515       O559   2.308       .  S
Mg515       O555   2.286       .  S
Mg515       O526   2.289       .  S
O516       Mg558   2.157       .  S
O516        C537   1.237       .  S
O517        C548   1.273       .  A
O517       Mg541   2.310       .  S
C518        C946   1.473       .  S
C518        O520   1.271       .  A
C518        O532   1.272       .  A
O519        C547   1.269       .  A
O519       Mg521   2.292       .  S
O520       Mg552   2.262       .  S
Mg521       O527   2.129       .  S
Mg521       O535   2.219       .  S
Mg521       O523   2.263       .  S
C522        C981   1.466       .  S
C522        O560   1.266       .  A
C522        O528   1.276       .  A
O523        C530   1.268       .  A
H524        C537   1.081       .  S
C525        H550   1.081       .  S
C525        O539   1.238       .  S
C525        O540   1.272       .  A
O527       Mg541   2.157       .  S
O528       Mg558   2.312       .  S
C529        O542   1.276       .  A
C530        C962   1.469       .  S
C530        O557   1.273       .  A
Mg531       O538   2.127       .  S
Mg531       O539   2.156       .  S
Mg531       O532   2.285       .  S
Mg531       O533   2.291       .  S
Mg531       O560   2.219       .  S
O533        C537   1.270       .  A
O534       Mg541   2.338       .  S
O535        C554   1.267       .  A
O536        C556   1.275       .  A
O536       Mg552   2.312       .  S
O538       Mg552   2.148       .  S
O538        C549   1.233       .  S
O539       Mg558   2.158       .  S
O540       Mg552   2.306       .  S
Mg541       O557   2.280       .  S
O542       Mg558   2.285       .  S
H543        C548   1.081       .  S
O544        C547   1.236       .  S
H545        C547   1.081       .  S
H546        C549   1.081       .  S
O551       Mg558   2.290       .  S
C554        C933   1.484       .  S
C554        O559   1.274       .  A
O561       Mg563   2.158       .  S
O561       Mg569   2.142       .  S
O561        C596   1.239       .  S
C562        H601   1.081       .  S
C562        O575   1.232       .  S
Mg563       O592   2.170       .  S
Mg563       O607   2.303       .  S
Mg563       O603   2.264       .  S
Mg563       O574   2.285       .  S
O564       Mg606   2.172       .  S
O564        C585   1.237       .  S
O565        C596   1.275       .  A
O565       Mg589   2.322       .  S
C566        C914   1.472       .  S
C566        O568   1.275       .  A
C566        O580   1.267       .  A
O567        C595   1.270       .  A
O567       Mg569   2.293       .  S
O568       Mg600   2.289       .  S
Mg569       O575   2.136       .  S
Mg569       O583   2.232       .  S
Mg569       O571   2.259       .  S
C570        C882   1.472       .  S
C570        O608   1.266       .  A
C570        O576   1.275       .  A
O571        C578   1.267       .  A
H572        C585   1.081       .  S
C573        H598   1.081       .  S
C573        O587   1.237       .  S
C573        O588   1.271       .  A
O575       Mg589   2.144       .  S
O576       Mg606   2.305       .  S
C577        O582   1.279       .  A
C578        C866   1.465       .  S
C578        O605   1.272       .  A
Mg579       O586   2.128       .  S
Mg579       O587   2.153       .  S
Mg579       O580   2.249       .  S
Mg579       O581   2.286       .  S
Mg579       O608   2.228       .  S
O581        C585   1.269       .  A
O582       Mg589   2.329       .  S
O583        C602   1.267       .  A
O584       Mg600   2.325       .  S
O586       Mg600   2.160       .  S
O586        C597   1.232       .  S
O587       Mg606   2.149       .  S
O588       Mg600   2.303       .  S
Mg589       O605   2.279       .  S
O590       Mg606   2.276       .  S
H591        C596   1.081       .  S
O592        C595   1.237       .  S
H593        C595   1.081       .  S
H594        C597   1.081       .  S
O599       Mg606   2.292       .  S
C602        C898   1.490       .  S
C602        O607   1.272       .  A
O603        C604   1.274       .  A
O609       Mg611   2.165       .  S
O609       Mg617   2.150       .  S
O609        C644   1.238       .  S
C610        H649   1.081       .  S
C610        O623   1.233       .  S
Mg611       O640   2.169       .  S
Mg611       O655   2.305       .  S
Mg611       O651   2.281       .  S
Mg611       O622   2.286   1_556  S
O612       Mg654   2.172       .  S
O612        C633   1.237       .  S
O613        C644   1.273       .  A
O613       Mg637   2.312       .  S
C614        C818   1.477       .  S
C614        O616   1.273       .  A
C614        O628   1.272       .  A
O615        C643   1.270       .  A
O615       Mg617   2.289       .  S
O616       Mg648   2.276       .  S
Mg617       O623   2.137       .  S
Mg617       O631   2.231       .  S
Mg617       O619   2.266       .  S
C618        C850   1.483       .  S
C618        O656   1.265       .  A
C618        O624   1.277       .  A
O619        C626   1.269       .  A
H620        C633   1.081       .  S
C621        H646   1.081       .  S
C621        O635   1.238       .  S
C621        O636   1.274       .  A
O623       Mg637   2.152       .  S
O624       Mg654   2.328       .  S
C625        O630   1.278   1_554  A
C626        C834   1.475       .  S
C626        O653   1.274       .  A
Mg627       O634   2.131       .  S
Mg627       O635   2.148       .  S
Mg627       O628   2.283       .  S
Mg627       O629   2.298       .  S
Mg627       O656   2.221       .  S
O629        C633   1.271       .  A
O630       Mg637   2.326       .  S
O631        C650   1.268       .  A
O632       Mg648   2.335       .  S
O634       Mg648   2.150       .  S
O634        C645   1.232       .  S
O635       Mg654   2.171       .  S
O636       Mg648   2.316       .  S
Mg637       O653   2.293       .  S
O638       Mg654   2.288       .  S
H639        C644   1.081       .  S
O640        C643   1.237       .  S
H641        C643   1.081       .  S
H642        C645   1.081       .  S
O647       Mg654   2.292       .  S
C650        C802   1.488       .  S
C650        O655   1.273       .  A
O651        C652   1.276       .  A
O657       Mg659   2.169       .  S
O657       Mg665   2.160       .  S
O657        C692   1.238       .  S
C658        H697   1.081       .  S
C658        O671   1.233       .  S
Mg659       O688   2.173       .  S
Mg659       O703   2.315       .  S
Mg659       O699   2.294       .  S
Mg659       O670   2.287       .  S
O660       Mg702   2.173       .  S
O660        C681   1.237       .  S
O661        C692   1.273       .  A
O661       Mg685   2.310       .  S
C662        C754   1.466       .  S
C662        O664   1.273       .  A
C662        O676   1.269       .  A
O663        C691   1.269       .  A
O663       Mg665   2.287       .  S
O664       Mg696   2.283       .  S
Mg665       O671   2.132       .  S
Mg665       O679   2.221       .  S
Mg665       O667   2.259       .  S
C666        C789   1.467       .  S
C666        O704   1.267       .  A
C666        O672   1.275       .  A
O667        C674   1.268       .  A
H668        C681   1.081       .  S
C669        H694   1.081       .  S
C669        O683   1.238       .  S
C669        O684   1.273       .  A
O671       Mg685   2.159       .  S
O672       Mg702   2.310       .  S
C673        O686   1.277       .  A
C674        C770   1.466       .  S
C674        O701   1.273       .  A
Mg675       O682   2.132       .  S
Mg675       O683   2.160       .  S
Mg675       O676   2.268       .  S
Mg675       O677   2.288       .  S
Mg675       O704   2.232       .  S
O677        C681   1.269       .  A
O678       Mg685   2.327       .  S
O679        C698   1.266       .  A
O680        C700   1.277   1_556  A
O680       Mg696   2.316       .  S
O682       Mg696   2.157       .  S
O682        C693   1.233       .  S
O683       Mg702   2.164       .  S
O684       Mg696   2.307       .  S
Mg685       O701   2.286       .  S
O686       Mg702   2.290       .  S
H687        C692   1.081       .  S
O688        C691   1.236       .  S
H689        C691   1.081       .  S
H690        C693   1.081       .  S
O695       Mg702   2.287   1_554  S
C698        C738   1.471       .  S
C698        O703   1.276       .  A
C705       C1698   1.410   1_455  A
C705        C710   1.399       .  A
C705        C978   1.475       .  S
C706       C1697   1.410       .  A
C706        C707   1.398       .  A
C706        C901   1.481       .  S
C707        C708   1.401       .  A
C707        H712   1.084       .  S
C708       C1701   1.420       .  A
C708        C917   1.480       .  S
C709       C1700   1.420   1_455  A
C709        C710   1.401       .  A
C709        C965   1.489       .  S
C710        H711   1.083       .  S
C713       C1706   1.417       .  A
C713        C718   1.402       .  A
C713        C853   1.483       .  S
C714       C1705   1.416   1_455  A
C714        C715   1.401       .  A
C714        C773   1.484       .  S
C715        C716   1.402       .  A
C715        H720   1.083       .  S
C716       C1709   1.418   1_455  A
C716        C786   1.485       .  S
C717       C1708   1.418       .  A
C717        C718   1.401       .  A
C717        C837   1.485       .  S
C718        H719   1.084       .  S
C721        C722   1.413       .  A
C721        C726   1.401       .  A
C721        C821   1.485       .  S
C722        C723   1.400       .  A
C722        C741   1.476       .  S
C723        C724   1.401       .  A
C723        H728   1.084       .  S
C724        C725   1.414       .  A
C724        C757   1.481       .  S
C725        C726   1.402       .  A
C725        C805   1.482       .  S
C726        H727   1.084       .  S
C729        C730   1.415       .  A
C729        C734   1.399       .  A
C729        C949   1.483       .  S
C730        C731   1.400       .  A
C730        C869   1.476       .  S
C731        C732   1.398       .  A
C731        H736   1.084       .  S
C732        C733   1.410       .  A
C732        C885   1.477       .  S
C733        C734   1.399       .  A
C733        C930   1.476       .  S
C734        H735   1.084       .  S
C737        C738   1.405       .  A
C737        C742   1.404       .  A
C737        H744   1.084       .  S
C738        C739   1.413       .  A
C739        C740   1.398       .  A
C739        C746   1.508       .  S
C740        C741   1.400       .  A
C740        H745   1.084       .  S
C741        C742   1.410       .  A
C742        C743   1.507       .  S
C743        H747   1.111       .  S
C743        H748   1.110       .  S
C743        H749   1.109       .  S
C746        H750   1.109       .  S
C746        H751   1.110       .  S
C746        H752   1.111       .  S
C753        C754   1.403       .  A
C753        C758   1.404       .  A
C753        H760   1.084       .  S
C754        C755   1.408       .  A
C755        C756   1.401       .  A
C755        C762   1.506       .  S
C756        C757   1.404       .  A
C756        H761   1.083       .  S
C757        C758   1.411       .  A
C758        C759   1.507       .  S
C759        H763   1.111       .  S
C759        H764   1.109       .  S
C759        H765   1.110       .  S
C762        H766   1.110       .  S
C762        H767   1.110       .  S
C762        H768   1.111       .  S
C769        C770   1.404       .  A
C769        C774   1.404       .  A
C769        H776   1.084       .  S
C770        C771   1.407       .  A
C771        C772   1.400       .  A
C771        C778   1.506       .  S
C772        C773   1.404       .  A
C772        H777   1.083       .  S
C773        C774   1.411       .  A
C774       C1767   1.509       .  S
C775       C1766   1.508       .  S
C775        H779   1.111       .  S
C775       H1772   1.110       .  S
C775        H781   1.107       .  S
C778        H782   1.110       .  S
C778        H783   1.110       .  S
C778        H784   1.111       .  S
H780       C1767   1.110       .  S
C785        C786   1.404       .  A
C785        C790   1.399       .  A
C785       H1784   1.083       .  S
C786        C787   1.412       .  A
C787        C788   1.405       .  A
C787        C794   1.509       .  S
C788        C789   1.404       .  A
C788        H793   1.084       .  S
C789        C790   1.408       .  A
C790        C791   1.507       .  S
C791       H1787   1.111       .  S
C791        H796   1.109       .  S
C791        H797   1.111       .  S
H792       C1777   1.083       .  S
C794        H798   1.107       .  S
C794        H799   1.109       .  S
C794        H800   1.111       .  S
H795       C1783   1.111       .  S
C801        C802   1.409       .  A
C801        C806   1.399       .  A
C801        H808   1.084       .  S
C802        C803   1.420       .  A
C803        C804   1.404       .  A
C803        C810   1.508       .  S
C804        C805   1.402       .  A
C804        H809   1.083       .  S
C805        C806   1.409       .  A
C806        C807   1.508       .  S
C807        H811   1.111       .  S
C807        H812   1.110       .  S
C807        H813   1.109       .  S
C810        H814   1.110       .  S
C810        H815   1.110       .  S
C810        H816   1.111       .  S
C817        C818   1.404       .  A
C817        C822   1.402       .  A
C817        H824   1.085       .  S
C818        C819   1.414       .  A
C819        C820   1.403       .  A
C819        C826   1.507       .  S
C820        C821   1.403       .  A
C820        H825   1.082       .  S
C821        C822   1.415       .  A
C822        C823   1.507       .  S
C823        H827   1.111       .  S
C823        H828   1.110       .  S
C823        H829   1.106       .  S
C826        H830   1.110       .  S
C826        H831   1.110       .  S
C826        H832   1.111       .  S
C833        C834   1.403       .  A
C833        C838   1.404       .  A
C833        H840   1.084       .  S
C834        C835   1.415       .  A
C835        C836   1.403       .  A
C835        C842   1.508       .  S
C836        C837   1.402       .  A
C836        H841   1.084       .  S
C837        C838   1.411       .  A
C838       C1831   1.504       .  S
C839       C1830   1.504       .  S
C839        H843   1.111       .  S
C839        H844   1.110       .  S
C839        H845   1.102   1_655  S
C842        H846   1.109       .  S
C842        H847   1.111       .  S
C842        H848   1.111       .  S
C849        C850   1.406       .  A
C849        C854   1.405       .  A
C849        H856   1.084       .  S
C850        C851   1.420       .  A
C851        C852   1.401       .  A
C851        C858   1.509       .  S
C852        C853   1.399       .  A
C852       H1849   1.084       .  S
C853        C854   1.410       .  A
C854        C855   1.503       .  S
C855        H859   1.111       .  S
C855        H860   1.103       .  S
C855        H861   1.110       .  S
H857       C1844   1.084       .  S
C858        H862   1.111       .  S
C858        H863   1.109       .  S
C858       H1856   1.111       .  S
H864       C1850   1.111       .  S
C865        C866   1.401       .  A
C865        C870   1.399       .  A
C865        H872   1.085       .  S
C866        C867   1.411       .  A
C867        C868   1.401       .  A
C867        C874   1.507       .  S
C868        C869   1.401       .  A
C868        H873   1.084       .  S
C869        C870   1.413       .  A
C870        C871   1.507       .  S
C871        H875   1.110       .  S
C871        H876   1.110       .  S
C871        H877   1.108       .  S
C874        H878   1.110       .  S
C874        H879   1.110       .  S
C874        H880   1.111       .  S
C881        C882   1.404       .  A
C881        C886   1.401       .  A
C881        H888   1.085       .  S
C882        C883   1.413       .  A
C883        C884   1.400       .  A
C883        C890   1.508       .  S
C884        C885   1.402       .  A
C884        H889   1.084       .  S
C885        C886   1.412       .  A
C886        C887   1.507       .  S
C887        H891   1.110       .  S
C887        H892   1.108       .  S
C887        H893   1.110       .  S
C890        H894   1.111       .  S
C890        H895   1.109       .  S
C890        H896   1.111       .  S
C897        C898   1.409       .  A
C897        C902   1.400       .  A
C897        H904   1.083       .  S
C898        C899   1.421       .  A
C899        C900   1.404       .  A
C899        C906   1.508       .  S
C900        C901   1.401       .  A
C900       H1897   1.082       .  S
C901        C902   1.408       .  A
C902        C903   1.508       .  S
C903        H907   1.111       .  S
C903        H908   1.110       .  S
C903        H909   1.110       .  S
H905       C1892   1.083       .  S
C906        H910   1.110       .  S
C906        H911   1.110       .  S
C906       H1904   1.111       .  S
H912       C1898   1.111       .  S
C913        C914   1.402       .  A
C913        C918   1.402       .  A
C913        H920   1.084       .  S
C914        C915   1.417       .  A
C915        C916   1.400       .  A
C915        C922   1.509       .  S
C916        C917   1.400       .  A
C916        H921   1.085       .  S
C917        C918   1.411       .  A
C918       C1911   1.505       .  S
C919       C1910   1.505       .  S
C919        H923   1.111       .  S
C919        H924   1.102   1_655  S
C919        H925   1.110       .  S
C922        H926   1.110       .  S
C922        H927   1.109       .  S
C922        H928   1.111       .  S
C929        C930   1.400       .  A
C929        C934   1.403       .  A
C929        H936   1.084       .  S
C930        C931   1.411       .  A
C931        C932   1.396       .  A
C931        C938   1.509       .  S
C932        C933   1.407       .  A
C932        H937   1.085       .  S
C933        C934   1.420       .  A
C934        C935   1.508       .  S
C935        H939   1.111       .  S
C935        H940   1.110       .  S
C935        H941   1.110       .  S
C938        H942   1.106       .  S
C938        H943   1.110       .  S
C938        H944   1.110       .  S
C945        C946   1.403       .  A
C945        C950   1.402       .  A
C945        H952   1.084       .  S
C946        C947   1.413       .  A
C947        C948   1.401       .  A
C947        C954   1.508       .  S
C948        C949   1.402       .  A
C948        H953   1.083       .  S
C949        C950   1.412       .  A
C950        C951   1.507       .  S
C951        H955   1.111       .  S
C951        H956   1.109       .  S
C951        H957   1.108       .  S
C954        H958   1.110       .  S
C954        H959   1.110       .  S
C954        H960   1.111       .  S
C961        C962   1.403       .  A
C961        C966   1.404       .  A
C961        H968   1.084       .  S
C962        C963   1.407       .  A
C963        C964   1.400       .  A
C963        C970   1.506       .  S
C964        C965   1.406       .  A
C964       H1961   1.083       .  S
C965        C966   1.414       .  A
C966        C967   1.509       .  S
C967        H971   1.111       .  S
C967        H972   1.108       .  S
C967        H973   1.109       .  S
H969       C1956   1.083       .  S
C970        H974   1.110       .  S
C970        H975   1.110       .  S
C970       H1968   1.111       .  S
H976       C1962   1.111       .  S
C977        C978   1.402       .  A
C977        C982   1.400       .  A
C977       H1976   1.083       .  S
C978        C979   1.409       .  A
C979        C980   1.401       .  A
C979        C986   1.507       .  S
C980        C981   1.402       .  A
C980        H985   1.084       .  S
C981        C982   1.412       .  A
C982        C983   1.507       .  S
C983       H1979   1.111       .  S
C983        H988   1.110       .  S
C983        H989   1.109       .  S
H984       C1969   1.083       .  S
C986        H990   1.109       .  S
C986        H991   1.110       .  S
C986        H992   1.111       .  S
H987       C1975   1.111       .  S
C993        C994   1.419       .  A
C993       C1494   1.405       .  A
C993       C1196   1.477       .  S
C994        C995   1.406       .  A
C994       C1148   1.481       .  S
C995       C1492   1.403       .  A
C995       H1000   1.085       .  S
C996       C1491   1.403       .  A
C996        C997   1.411       .  A
C996       C1073   1.476       .  S
C997        C998   1.402   1_556  A
C997       C1052   1.474       .  S
C998       C1489   1.405       .  A
C998        H999   1.085       .  S
C1001      C1006   1.409   1_565  A
C1001      C1665   1.481       .  S
C1002      C1003   1.402       .  A
C1002      C1617   1.479       .  S
C1003      C1004   1.401   1_565  A
C1003      H1008   1.086       .  S
C1004      C1100   1.473       .  S
C1005      C1006   1.407       .  A
C1005      C1025   1.479   1_556  S
C1006      H1007   1.085       .  S
O1009     Mg1011   2.165       .  S
O1009     Mg1017   2.157       .  S
O1009      C1044   1.239       .  S
C1010      H1049   1.081       .  S
C1010      O1023   1.233       .  S
C1010      O1543   1.267       .  A
Mg1011     O1040   2.160       .  S
Mg1011     O1055   2.307       .  S
Mg1011     O1051   2.285       .  S
Mg1011     O1022   2.289       .  S
O1012     Mg1054   2.157       .  S
O1012     Mg1533   2.135   1_554  S
O1012      C1033   1.237       .  S
O1013      C1044   1.273       .  A
O1013     Mg1037   2.310       .  S
C1014      C1442   1.473       .  S
C1014      O1016   1.271       .  A
C1014      O1028   1.271       .  A
O1015      C1043   1.269       .  A
O1015     Mg1017   2.292       .  S
O1016     Mg1048   2.263       .  S
Mg1017     O1023   2.128       .  S
Mg1017     O1031   2.219       .  S
Mg1017     O1019   2.262       .  S
C1018      C1477   1.466       .  S
C1018      O1056   1.266       .  A
C1018      O1024   1.276       .  A
O1019      C1026   1.268       .  A
H1020      C1033   1.081       .  S
C1021      H1046   1.081       .  S
C1021      O1035   1.237       .  S
C1021      O1036   1.272       .  A
O1022      C1541   1.266       .  A
O1023     Mg1037   2.157       .  S
O1024     Mg1054   2.313       .  S
C1025      O1038   1.276       .  A
C1025      O1526   1.279   1_554  A
C1026      C1458   1.468       .  S
C1026      O1053   1.273       .  A
Mg1027     O1034   2.126       .  S
Mg1027     O1035   2.156       .  S
Mg1027     O1028   2.284       .  S
Mg1027     O1029   2.290       .  S
Mg1027     O1056   2.218       .  S
O1029      C1033   1.270       .  A
O1030      C1521   1.279       .  A
O1030     Mg1037   2.337       .  S
O1031      C1050   1.267       .  A
O1032      C1052   1.275   1_554  A
O1032     Mg1048   2.312       .  S
O1034     Mg1048   2.148       .  S
O1034      C1045   1.233       .  S
O1035     Mg1054   2.157       .  S
O1036     Mg1048   2.306       .  S
Mg1037     O1508   2.135       .  S
Mg1037     O1053   2.279       .  S
O1038     Mg1054   2.284       .  S
H1039      C1044   1.081       .  S
O1040     Mg1544   2.133       .  S
O1040      C1043   1.236       .  S
H1041      C1043   1.081       .  S
H1042      C1045   1.081       .  S
C1045      O1518   1.266   1_554  A
O1047      C1506   1.267   1_554  A
O1047     Mg1054   2.290       .  S
Mg1048     O1536   2.133   1_554  S
C1050      C1429   1.484       .  S
C1050      O1055   1.274       .  A
O1051      C1548   1.276       .  A
C1052      O1547   1.276       .  A
O1057     Mg1059   2.159       .  S
O1057     Mg1065   2.142       .  S
O1057      C1092   1.239       .  S
C1058      H1097   1.081       .  S
C1058      O1071   1.232       .  S
C1058      O1591   1.266   1_554  A
Mg1059     O1088   2.170       .  S
Mg1059     O1103   2.304       .  S
Mg1059     O1099   2.265       .  S
Mg1059     O1070   2.285       .  S
O1060     Mg1102   2.172       .  S
O1060     Mg1581   2.131       .  S
O1060      C1081   1.237       .  S
O1061      C1092   1.275       .  A
O1061     Mg1085   2.322       .  S
C1062      C1410   1.473       .  S
C1062      O1064   1.275       .  A
C1062      O1076   1.267       .  A
O1063      C1091   1.270       .  A
O1063     Mg1065   2.293       .  S
O1064     Mg1096   2.289       .  S
Mg1065     O1071   2.137       .  S
Mg1065     O1079   2.233       .  S
Mg1065     O1067   2.260       .  S
C1066      C1378   1.472       .  S
C1066      O1104   1.266       .  A
C1066      O1072   1.275       .  A
O1067      C1074   1.267       .  A
H1068      C1081   1.081       .  S
C1069      H1094   1.081       .  S
C1069      O1083   1.237       .  S
C1069      O1084   1.271       .  A
O1070      C1589   1.265   1_554  A
O1071     Mg1085   2.144       .  S
O1072     Mg1102   2.306       .  S
C1073      O1582   1.274       .  A
C1073      O1078   1.279   1_556  A
C1074      C1362   1.465       .  S
C1074      O1101   1.272       .  A
Mg1075     O1082   2.128       .  S
Mg1075     O1083   2.153       .  S
Mg1075     O1076   2.249       .  S
Mg1075     O1077   2.286       .  S
Mg1075     O1104   2.229       .  S
O1077      C1081   1.269       .  A
O1078     Mg1085   2.328       .  S
O1079      C1098   1.267       .  A
O1080      C1596   1.279       .  A
O1080     Mg1096   2.324       .  S
O1082     Mg1096   2.161       .  S
O1082      C1093   1.232       .  S
O1083     Mg1102   2.149       .  S
O1084     Mg1096   2.302       .  S
Mg1085     O1556   2.131   1_554  S
Mg1085     O1101   2.279       .  S
O1086      C1569   1.274       .  A
O1086     Mg1102   2.274       .  S
H1087      C1092   1.081       .  S
O1088     Mg1592   2.137   1_554  S
O1088      C1091   1.237       .  S
H1089      C1091   1.081       .  S
H1090      C1093   1.081       .  S
C1093      O1566   1.265       .  A
O1095      C1554   1.266       .  A
O1095     Mg1102   2.292       .  S
Mg1096     O1584   2.137       .  S
C1098      C1394   1.491       .  S
C1098      O1103   1.272       .  A
O1099      C1100   1.274       .  A
C1100      O1576   1.279   1_554  A
O1105     Mg1107   2.165       .  S
O1105     Mg1113   2.150       .  S
O1105      C1140   1.238       .  S
C1106      H1145   1.081       .  S
C1106      O1119   1.233       .  S
C1106      O1639   1.267       .  A
Mg1107     O1136   2.169       .  S
Mg1107     O1151   2.302       .  S
Mg1107     O1147   2.281       .  S
Mg1107     O1118   2.285       .  S
O1108     Mg1150   2.172       .  S
O1108     Mg1629   2.149   1_554  S
O1108      C1129   1.237       .  S
O1109      C1140   1.273       .  A
O1109     Mg1133   2.312       .  S
C1110      C1314   1.476       .  S
C1110      O1112   1.273       .  A
C1110      O1124   1.272       .  A
O1111      C1139   1.270       .  A
O1111     Mg1113   2.289       .  S
O1112     Mg1144   2.275       .  S
Mg1113     O1119   2.138       .  S
Mg1113     O1127   2.231       .  S
Mg1113     O1115   2.266       .  S
C1114      C1346   1.484       .  S
C1114      O1152   1.265       .  A
C1114      O1120   1.277       .  A
O1115      C1122   1.269       .  A
H1116      C1129   1.081       .  S
C1117      H1142   1.081       .  S
C1117      O1131   1.238       .  S
C1117      O1132   1.274       .  A
O1118      C1637   1.265       .  A
O1119     Mg1133   2.153       .  S
O1120     Mg1150   2.327       .  S
C1121      C1498   1.480       .  S
C1121      O1630   1.277       .  A
C1121      O1126   1.278       .  A
C1122      C1330   1.475       .  S
C1122      O1149   1.274       .  A
Mg1123     O1130   2.131       .  S
Mg1123     O1131   2.148       .  S
Mg1123     O1124   2.283       .  S
Mg1123     O1125   2.297       .  S
Mg1123     O1152   2.222       .  S
O1125      C1129   1.271       .  A
O1126     Mg1133   2.327       .  S
O1127      C1146   1.268       .  A
O1128      C1644   1.279   1_554  A
O1128     Mg1144   2.334       .  S
O1130     Mg1144   2.151       .  S
O1130      C1141   1.232       .  S
O1131     Mg1150   2.171       .  S
O1132     Mg1144   2.315       .  S
Mg1133     O1604   2.149       .  S
Mg1133     O1149   2.292       .  S
O1134      C1617   1.277       .  A
O1134     Mg1150   2.289       .  S
H1135      C1140   1.081       .  S
O1136     Mg1640   2.132       .  S
O1136      C1139   1.237       .  S
H1137      C1139   1.081       .  S
H1138      C1141   1.081       .  S
C1141      O1614   1.265       .  A
O1143      C1602   1.267   1_554  A
O1143     Mg1150   2.292       .  S
Mg1144     O1632   2.132   1_554  S
C1146      C1298   1.488       .  S
C1146      O1151   1.273       .  A
O1147      C1148   1.276       .  A
C1148      O1624   1.279       .  A
O1153     Mg1155   2.169       .  S
O1153     Mg1161   2.159       .  S
O1153      C1188   1.238       .  S
C1154      H1193   1.081       .  S
C1154      O1167   1.233       .  S
C1154      O1687   1.266       .  A
Mg1155     O1184   2.173       .  S
Mg1155     O1199   2.313       .  S
Mg1155     O1195   2.292       .  S
Mg1155     O1166   2.286       .  S
O1156     Mg1198   2.173       .  S
O1156     Mg1677   2.136       .  S
O1156      C1177   1.237       .  S
O1157      C1188   1.273       .  A
O1157     Mg1181   2.311       .  S
C1158      C1250   1.466       .  S
C1158      O1160   1.273       .  A
C1158      O1172   1.269       .  A
O1159      C1187   1.269       .  A
O1159     Mg1161   2.288       .  S
O1160     Mg1192   2.284       .  S
Mg1161     O1167   2.132       .  S
Mg1161     O1175   2.222       .  S
Mg1161     O1163   2.262       .  S
C1162      C1285   1.467       .  S
C1162      O1200   1.267       .  A
C1162      O1168   1.275       .  A
O1163      C1170   1.268       .  A
H1164      C1177   1.081       .  S
C1165      H1190   1.081       .  S
C1165      O1179   1.238       .  S
C1165      O1180   1.272       .  A
O1166      C1685   1.266   1_554  A
O1167     Mg1181   2.158       .  S
O1168     Mg1198   2.311       .  S
C1169      C1497   1.481       .  S
C1169      O1182   1.277       .  A
C1169      O1670   1.278       .  A
C1170      C1266   1.466       .  S
C1170      O1197   1.273       .  A
Mg1171     O1178   2.131       .  S
Mg1171     O1179   2.160       .  S
Mg1171     O1172   2.268       .  S
Mg1171     O1173   2.288       .  S
Mg1171     O1200   2.229       .  S
O1173      C1177   1.269       .  A
O1174      C1665   1.278   1_554  A
O1174     Mg1181   2.327       .  S
O1175      C1194   1.266       .  A
O1176      C1196   1.277       .  A
O1176     Mg1192   2.316       .  S
O1178     Mg1192   2.157       .  S
O1178      C1189   1.233       .  S
O1179     Mg1198   2.164       .  S
O1180     Mg1192   2.306       .  S
Mg1181     O1652   2.136   1_554  S
Mg1181     O1197   2.286       .  S
O1182     Mg1198   2.291       .  S
H1183      C1188   1.081       .  S
O1184     Mg1688   2.137   1_554  S
O1184      C1187   1.236       .  S
H1185      C1187   1.081       .  S
H1186      C1189   1.081       .  S
C1189      O1662   1.266       .  A
O1191      C1650   1.266       .  A
O1191     Mg1198   2.288       .  S
Mg1192     O1680   2.137       .  S
C1194      C1234   1.471       .  S
C1194      O1199   1.276       .  A
O1195      C1692   1.278       .  A
C1196      O1691   1.278       .  A
C1201      C1206   1.399       .  A
C1201      C1474   1.475       .  S
C1202      C1203   1.398       .  A
C1202      C1397   1.482       .  S
C1203      C1204   1.401       .  A
C1203      H1208   1.084       .  S
C1204      C1413   1.480       .  S
C1205      C1206   1.401       .  A
C1205      C1461   1.488       .  S
C1206      H1207   1.083       .  S
C1209      C1214   1.401       .  A
C1209      C1349   1.483       .  S
C1210      C1211   1.401       .  A
C1210      C1269   1.484       .  S
C1211      C1212   1.402       .  A
C1211      H1216   1.083       .  S
C1212      C1282   1.484       .  S
C1213      C1214   1.402       .  A
C1213      C1333   1.484       .  S
C1214      H1215   1.084       .  S
C1217      C1218   1.412       .  A
C1217      C1222   1.401       .  A
C1217      C1317   1.484       .  S
C1218      C1219   1.400       .  A
C1218      C1237   1.476       .  S
C1219      C1220   1.401       .  A
C1219      H1224   1.084       .  S
C1220      C1221   1.414       .  A
C1220      C1253   1.482       .  S
C1221      C1222   1.402       .  A
C1221      C1301   1.482       .  S
C1222      H1223   1.084       .  S
C1225      C1226   1.415       .  A
C1225      C1230   1.399       .  A
C1225      C1445   1.483       .  S
C1226      C1227   1.400       .  A
C1226      C1365   1.476       .  S
C1227      C1228   1.398       .  A
C1227      H1232   1.084       .  S
C1228      C1229   1.410       .  A
C1228      C1381   1.477       .  S
C1229      C1230   1.399       .  A
C1229      C1426   1.476       .  S
C1230      H1231   1.084       .  S
C1233      C1234   1.405       .  A
C1233      C1238   1.404       .  A
C1233      H1240   1.084       .  S
C1234      C1235   1.413       .  A
C1235      C1236   1.398       .  A
C1235      C1242   1.508       .  S
C1236      C1237   1.400       .  A
C1236      H1241   1.084       .  S
C1237      C1238   1.410       .  A
C1238      C1239   1.507       .  S
C1239      H1243   1.111       .  S
C1239      H1244   1.110       .  S
C1239      H1245   1.109       .  S
C1242      H1246   1.109       .  S
C1242      H1247   1.110       .  S
C1242      H1248   1.111       .  S
C1249      C1250   1.403       .  A
C1249      C1254   1.404       .  A
C1249      H1256   1.084       .  S
C1250      C1251   1.408       .  A
C1251      C1252   1.401       .  A
C1251      C1258   1.506       .  S
C1252      C1253   1.404       .  A
C1252      H1257   1.083       .  S
C1253      C1254   1.411       .  A
C1254      C1255   1.507       .  S
C1255      H1259   1.111       .  S
C1255      H1260   1.109       .  S
C1255      H1261   1.110       .  S
C1258      H1262   1.110       .  S
C1258      H1263   1.110       .  S
C1258      H1264   1.111       .  S
C1265      C1266   1.404       .  A
C1265      C1270   1.404       .  A
C1265      H1272   1.084       .  S
C1266      C1267   1.407       .  A
C1267      C1268   1.401       .  A
C1267      C1274   1.506       .  S
C1268      C1269   1.405       .  A
C1268      H1273   1.083       .  S
C1269      C1270   1.411       .  A
C1271      H1275   1.111       .  S
C1271      H1277   1.107       .  S
C1274      H1278   1.110       .  S
C1274      H1279   1.110       .  S
C1274      H1280   1.111       .  S
C1281      C1282   1.404       .  A
C1281      C1286   1.399       .  A
C1282      C1283   1.412       .  A
C1283      C1284   1.405       .  A
C1283      C1290   1.509       .  S
C1284      C1285   1.404       .  A
C1284      H1289   1.084       .  S
C1285      C1286   1.408       .  A
C1286      C1287   1.507       .  S
C1287      H1292   1.109       .  S
C1287      H1293   1.111       .  S
C1290      H1294   1.107       .  S
C1290      H1295   1.109       .  S
C1290      H1296   1.111       .  S
C1297      C1298   1.409       .  A
C1297      C1302   1.399       .  A
C1297      H1304   1.083       .  S
C1298      C1299   1.420       .  A
C1299      C1300   1.403       .  A
C1299      C1306   1.508       .  S
C1300      C1301   1.402       .  A
C1300      H1305   1.083       .  S
C1301      C1302   1.409       .  A
C1302      C1303   1.508       .  S
C1303      H1307   1.111       .  S
C1303      H1308   1.110       .  S
C1303      H1309   1.109       .  S
C1306      H1310   1.110       .  S
C1306      H1311   1.110       .  S
C1306      H1312   1.111       .  S
C1313      C1314   1.403       .  A
C1313      C1318   1.402       .  A
C1313      H1320   1.085       .  S
C1314      C1315   1.414       .  A
C1315      C1316   1.403       .  A
C1315      C1322   1.507       .  S
C1316      C1317   1.403       .  A
C1316      H1321   1.082       .  S
C1317      C1318   1.415       .  A
C1318      C1319   1.507       .  S
C1319      H1323   1.111       .  S
C1319      H1324   1.110       .  S
C1319      H1325   1.106       .  S
C1322      H1326   1.110       .  S
C1322      H1327   1.110       .  S
C1322      H1328   1.111       .  S
C1329      C1330   1.403       .  A
C1329      C1334   1.404       .  A
C1329      H1336   1.084       .  S
C1330      C1331   1.415       .  A
C1331      C1332   1.403       .  A
C1331      C1338   1.508       .  S
C1332      C1333   1.402       .  A
C1332      H1337   1.084       .  S
C1333      C1334   1.411       .  A
C1335      H1339   1.111       .  S
C1335      H1340   1.110       .  S
C1335      H1341   1.102       .  S
C1338      H1342   1.109       .  S
C1338      H1343   1.111       .  S
C1338      H1344   1.111       .  S
C1345      C1346   1.406       .  A
C1345      C1350   1.405       .  A
C1345      H1352   1.084       .  S
C1346      C1347   1.420       .  A
C1347      C1348   1.401       .  A
C1347      C1354   1.509       .  S
C1348      C1349   1.399       .  A
C1349      C1350   1.410       .  A
C1350      C1351   1.503       .  S
C1351      H1355   1.111       .  S
C1351      H1356   1.103       .  S
C1351      H1357   1.110       .  S
C1354      H1358   1.111       .  S
C1354      H1359   1.109       .  S
C1361      C1362   1.401       .  A
C1361      C1366   1.399       .  A
C1361      H1368   1.085       .  S
C1362      C1363   1.411       .  A
C1363      C1364   1.401       .  A
C1363      C1370   1.507       .  S
C1364      C1365   1.402       .  A
C1364      H1369   1.084       .  S
C1365      C1366   1.413       .  A
C1366      C1367   1.507       .  S
C1367      H1371   1.110       .  S
C1367      H1372   1.110       .  S
C1367      H1373   1.108       .  S
C1370      H1374   1.110       .  S
C1370      H1375   1.110       .  S
C1370      H1376   1.111       .  S
C1377      C1378   1.404       .  A
C1377      C1382   1.401       .  A
C1377      H1384   1.085       .  S
C1378      C1379   1.413       .  A
C1379      C1380   1.400       .  A
C1379      C1386   1.508       .  S
C1380      C1381   1.402       .  A
C1380      H1385   1.084       .  S
C1381      C1382   1.412       .  A
C1382      C1383   1.507       .  S
C1383      H1387   1.110       .  S
C1383      H1388   1.108       .  S
C1383      H1389   1.110       .  S
C1386      H1390   1.111       .  S
C1386      H1391   1.109       .  S
C1386      H1392   1.111       .  S
C1393      C1394   1.410       .  A
C1393      C1398   1.400       .  A
C1393      H1400   1.083       .  S
C1394      C1395   1.422       .  A
C1395      C1396   1.404       .  A
C1395      C1402   1.508       .  S
C1396      C1397   1.401       .  A
C1397      C1398   1.408       .  A
C1398      C1399   1.508       .  S
C1399      H1403   1.111       .  S
C1399      H1404   1.110       .  S
C1399      H1405   1.110       .  S
C1402      H1406   1.110       .  S
C1402      H1407   1.110       .  S
C1409      C1410   1.402       .  A
C1409      C1414   1.402       .  A
C1409      H1416   1.084       .  S
C1410      C1411   1.417       .  A
C1411      C1412   1.400       .  A
C1411      C1418   1.509       .  S
C1412      C1413   1.400       .  A
C1412      H1417   1.085       .  S
C1413      C1414   1.411       .  A
C1415      H1419   1.111       .  S
C1415      H1420   1.102       .  S
C1415      H1421   1.110       .  S
C1418      H1422   1.110       .  S
C1418      H1423   1.109       .  S
C1418      H1424   1.111       .  S
C1425      C1426   1.400       .  A
C1425      C1430   1.403       .  A
C1425      H1432   1.084       .  S
C1426      C1427   1.411       .  A
C1427      C1428   1.396       .  A
C1427      C1434   1.509       .  S
C1428      C1429   1.407       .  A
C1428      H1433   1.085       .  S
C1429      C1430   1.420       .  A
C1430      C1431   1.508       .  S
C1431      H1435   1.111       .  S
C1431      H1436   1.110       .  S
C1431      H1437   1.110       .  S
C1434      H1438   1.106       .  S
C1434      H1439   1.110       .  S
C1434      H1440   1.110       .  S
C1441      C1442   1.403       .  A
C1441      C1446   1.402       .  A
C1441      H1448   1.084       .  S
C1442      C1443   1.413       .  A
C1443      C1444   1.401       .  A
C1443      C1450   1.507       .  S
C1444      C1445   1.402       .  A
C1444      H1449   1.083       .  S
C1445      C1446   1.412       .  A
C1446      C1447   1.507       .  S
C1447      H1451   1.111       .  S
C1447      H1452   1.109       .  S
C1447      H1453   1.108       .  S
C1450      H1454   1.110       .  S
C1450      H1455   1.110       .  S
C1450      H1456   1.111       .  S
C1457      C1458   1.403       .  A
C1457      C1462   1.404       .  A
C1457      H1464   1.084       .  S
C1458      C1459   1.407       .  A
C1459      C1460   1.400       .  A
C1459      C1466   1.506       .  S
C1460      C1461   1.406       .  A
C1461      C1462   1.414       .  A
C1462      C1463   1.509       .  S
C1463      H1467   1.111       .  S
C1463      H1468   1.108       .  S
C1463      H1469   1.109       .  S
C1466      H1470   1.110       .  S
C1466      H1471   1.110       .  S
C1473      C1474   1.402       .  A
C1473      C1478   1.400       .  A
C1474      C1475   1.409       .  A
C1475      C1476   1.401       .  A
C1475      C1482   1.507       .  S
C1476      C1477   1.402       .  A
C1476      H1481   1.084       .  S
C1477      C1478   1.412       .  A
C1478      C1479   1.507       .  S
C1479      H1484   1.110       .  S
C1479      H1485   1.109       .  S
C1482      H1486   1.109       .  S
C1482      H1487   1.110       .  S
C1482      H1488   1.111       .  S
C1489      C1490   1.419   1_554  A
C1489      C1692   1.477       .  S
C1490      C1491   1.406       .  A
C1490      C1644   1.481       .  S
C1491      H1496   1.085       .  S
C1492      C1493   1.411       .  A
C1492      C1569   1.476       .  S
C1493      C1494   1.402       .  A
C1493      C1548   1.474       .  S
C1494      H1495   1.085       .  S
C1497      C1502   1.409   1_565  A
C1498      C1499   1.402       .  A
C1499      C1500   1.401   1_565  A
C1499      H1504   1.086       .  S
C1500      C1596   1.473       .  S
C1501      C1502   1.407       .  A
C1501      C1521   1.479       .  S
C1502      H1503   1.085       .  S
O1505     Mg1507   2.165       .  S
O1505     Mg1513   2.157       .  S
O1505      C1540   1.239       .  S
C1506      H1545   1.081       .  S
C1506      O1519   1.233       .  S
Mg1507     O1536   2.160       .  S
Mg1507     O1551   2.307       .  S
Mg1507     O1547   2.285       .  S
Mg1507     O1518   2.289       .  S
O1508     Mg1550   2.157       .  S
O1508      C1529   1.237       .  S
O1509      C1540   1.273       .  A
O1509     Mg1533   2.310       .  S
C1510      C1938   1.473       .  S
C1510      O1512   1.271       .  A
C1510      O1524   1.271       .  A
O1511      C1539   1.269       .  A
O1511     Mg1513   2.292       .  S
O1512     Mg1544   2.263       .  S
Mg1513     O1519   2.128       .  S
Mg1513     O1527   2.219       .  S
Mg1513     O1515   2.262       .  S
C1514      C1973   1.466       .  S
C1514      O1552   1.266       .  A
C1514      O1520   1.276       .  A
O1515      C1522   1.268       .  A
H1516      C1529   1.081       .  S
C1517      H1542   1.081       .  S
C1517      O1531   1.237       .  S
C1517      O1532   1.272       .  A
O1519     Mg1533   2.157       .  S
O1520     Mg1550   2.313       .  S
C1521      O1534   1.276       .  A
C1522      C1954   1.468       .  S
C1522      O1549   1.273       .  A
Mg1523     O1530   2.126       .  S
Mg1523     O1531   2.156       .  S
Mg1523     O1524   2.284       .  S
Mg1523     O1525   2.290       .  S
Mg1523     O1552   2.218       .  S
O1525      C1529   1.270       .  A
O1526     Mg1533   2.337       .  S
O1527      C1546   1.267       .  A
O1528      C1548   1.275       .  A
O1528     Mg1544   2.312       .  S
O1530     Mg1544   2.148       .  S
O1530      C1541   1.233       .  S
O1531     Mg1550   2.157       .  S
O1532     Mg1544   2.306       .  S
Mg1533     O1549   2.279       .  S
O1534     Mg1550   2.284       .  S
H1535      C1540   1.081       .  S
O1536      C1539   1.236       .  S
H1537      C1539   1.081       .  S
H1538      C1541   1.081       .  S
O1543     Mg1550   2.290       .  S
C1546      C1925   1.484       .  S
C1546      O1551   1.274       .  A
O1553     Mg1555   2.159       .  S
O1553     Mg1561   2.142       .  S
O1553      C1588   1.239       .  S
C1554      H1593   1.081       .  S
C1554      O1567   1.232       .  S
Mg1555     O1584   2.170       .  S
Mg1555     O1599   2.303       .  S
Mg1555     O1595   2.264       .  S
Mg1555     O1566   2.285       .  S
O1556     Mg1598   2.172       .  S
O1556      C1577   1.237       .  S
O1557      C1588   1.275       .  A
O1557     Mg1581   2.322       .  S
C1558      C1906   1.473       .  S
C1558      O1560   1.275       .  A
C1558      O1572   1.267       .  A
O1559      C1587   1.270       .  A
O1559     Mg1561   2.293       .  S
O1560     Mg1592   2.289       .  S
Mg1561     O1567   2.137       .  S
Mg1561     O1575   2.233       .  S
Mg1561     O1563   2.260       .  S
C1562      C1874   1.472       .  S
C1562      O1600   1.266       .  A
C1562      O1568   1.275       .  A
O1563      C1570   1.267       .  A
H1564      C1577   1.081       .  S
C1565      H1590   1.081       .  S
C1565      O1579   1.237       .  S
C1565      O1580   1.271       .  A
O1567     Mg1581   2.143       .  S
O1568     Mg1598   2.306       .  S
C1569      O1574   1.279       .  A
C1570      C1858   1.465       .  S
C1570      O1597   1.272       .  A
Mg1571     O1578   2.129       .  S
Mg1571     O1579   2.153       .  S
Mg1571     O1572   2.249       .  S
Mg1571     O1573   2.286       .  S
Mg1571     O1600   2.229       .  S
O1573      C1577   1.269       .  A
O1574     Mg1581   2.329       .  S
O1575      C1594   1.267       .  A
O1576     Mg1592   2.324       .  S
O1578     Mg1592   2.161       .  S
O1578      C1589   1.232       .  S
O1579     Mg1598   2.149       .  S
O1580     Mg1592   2.303       .  S
Mg1581     O1597   2.279       .  S
O1582     Mg1598   2.274       .  S
H1583      C1588   1.081       .  S
O1584      C1587   1.237       .  S
H1585      C1587   1.081       .  S
H1586      C1589   1.081       .  S
O1591     Mg1598   2.292       .  S
C1594      C1890   1.491       .  S
C1594      O1599   1.272       .  A
O1595      C1596   1.274       .  A
O1601     Mg1603   2.165       .  S
O1601     Mg1609   2.150       .  S
O1601      C1636   1.238       .  S
C1602      H1641   1.081       .  S
C1602      O1615   1.233       .  S
Mg1603     O1632   2.169       .  S
Mg1603     O1647   2.303       .  S
Mg1603     O1643   2.281       .  S
Mg1603     O1614   2.286   1_556  S
O1604     Mg1646   2.172       .  S
O1604      C1625   1.237       .  S
O1605      C1636   1.273       .  A
O1605     Mg1629   2.312       .  S
C1606      C1810   1.476       .  S
C1606      O1608   1.273       .  A
C1606      O1620   1.272       .  A
O1607      C1635   1.270       .  A
O1607     Mg1609   2.289       .  S
O1608     Mg1640   2.275       .  S
Mg1609     O1615   2.138       .  S
Mg1609     O1623   2.231       .  S
Mg1609     O1611   2.266       .  S
C1610      C1842   1.484       .  S
C1610      O1648   1.265       .  A
C1610      O1616   1.277       .  A
O1611      C1618   1.269       .  A
H1612      C1625   1.081       .  S
C1613      H1638   1.081       .  S
C1613      O1627   1.238       .  S
C1613      O1628   1.274       .  A
O1615     Mg1629   2.153       .  S
O1616     Mg1646   2.327       .  S
C1617      O1622   1.278   1_554  A
C1618      C1826   1.475       .  S
C1618      O1645   1.274       .  A
Mg1619     O1626   2.131       .  S
Mg1619     O1627   2.148       .  S
Mg1619     O1620   2.283       .  S
Mg1619     O1621   2.297       .  S
Mg1619     O1648   2.222       .  S
O1621      C1625   1.271       .  A
O1622     Mg1629   2.327       .  S
O1623      C1642   1.268       .  A
O1624     Mg1640   2.334       .  S
O1626     Mg1640   2.151       .  S
O1626      C1637   1.232       .  S
O1627     Mg1646   2.171       .  S
O1628     Mg1640   2.315       .  S
Mg1629     O1645   2.292       .  S
O1630     Mg1646   2.289       .  S
H1631      C1636   1.081       .  S
O1632      C1635   1.237       .  S
H1633      C1635   1.081       .  S
H1634      C1637   1.081       .  S
O1639     Mg1646   2.292       .  S
C1642      C1794   1.488       .  S
C1642      O1647   1.273       .  A
O1643      C1644   1.276       .  A
O1649     Mg1651   2.169       .  S
O1649     Mg1657   2.159       .  S
O1649      C1684   1.238       .  S
C1650      H1689   1.081       .  S
C1650      O1663   1.233       .  S
Mg1651     O1680   2.173       .  S
Mg1651     O1695   2.313       .  S
Mg1651     O1691   2.292       .  S
Mg1651     O1662   2.287       .  S
O1652     Mg1694   2.173       .  S
O1652      C1673   1.237       .  S
O1653      C1684   1.273       .  A
O1653     Mg1677   2.311       .  S
C1654      C1746   1.466       .  S
C1654      O1656   1.273       .  A
C1654      O1668   1.269       .  A
O1655      C1683   1.269       .  A
O1655     Mg1657   2.288       .  S
O1656     Mg1688   2.284       .  S
Mg1657     O1663   2.133       .  S
Mg1657     O1671   2.222       .  S
Mg1657     O1659   2.262       .  S
C1658      C1781   1.467       .  S
C1658      O1696   1.267       .  A
C1658      O1664   1.275       .  A
O1659      C1666   1.268       .  A
H1660      C1673   1.081       .  S
C1661      H1686   1.081       .  S
C1661      O1675   1.238       .  S
C1661      O1676   1.272       .  A
O1663     Mg1677   2.159       .  S
O1664     Mg1694   2.311       .  S
C1665      O1678   1.277       .  A
C1666      C1762   1.466       .  S
C1666      O1693   1.273       .  A
Mg1667     O1674   2.131       .  S
Mg1667     O1675   2.160       .  S
Mg1667     O1668   2.268       .  S
Mg1667     O1669   2.288       .  S
Mg1667     O1696   2.229       .  S
O1669      C1673   1.269       .  A
O1670     Mg1677   2.327       .  S
O1671      C1690   1.266       .  A
O1672      C1692   1.277   1_556  A
O1672     Mg1688   2.316       .  S
O1674     Mg1688   2.157       .  S
O1674      C1685   1.233       .  S
O1675     Mg1694   2.164       .  S
O1676     Mg1688   2.306       .  S
Mg1677     O1693   2.286       .  S
O1678     Mg1694   2.291       .  S
H1679      C1684   1.081       .  S
O1680      C1683   1.236       .  S
H1681      C1683   1.081       .  S
H1682      C1685   1.081       .  S
O1687     Mg1694   2.288   1_554  S
C1690      C1730   1.471       .  S
C1690      O1695   1.276       .  A
C1697      C1702   1.399       .  A
C1697      C1970   1.475       .  S
C1698      C1699   1.398       .  A
C1698      C1893   1.482       .  S
C1699      C1700   1.401       .  A
C1699      H1704   1.084       .  S
C1700      C1909   1.480       .  S
C1701      C1702   1.401       .  A
C1701      C1957   1.488       .  S
C1702      H1703   1.083       .  S
C1705      C1710   1.401       .  A
C1705      C1845   1.483       .  S
C1706      C1707   1.401       .  A
C1706      C1765   1.484       .  S
C1707      C1708   1.402       .  A
C1707      H1712   1.083       .  S
C1708      C1778   1.484       .  S
C1709      C1710   1.402       .  A
C1709      C1829   1.484       .  S
C1710      H1711   1.084       .  S
C1713      C1714   1.412       .  A
C1713      C1718   1.401       .  A
C1713      C1813   1.484       .  S
C1714      C1715   1.400       .  A
C1714      C1733   1.476       .  S
C1715      C1716   1.401       .  A
C1715      H1720   1.084       .  S
C1716      C1717   1.414       .  A
C1716      C1749   1.482       .  S
C1717      C1718   1.402       .  A
C1717      C1797   1.482       .  S
C1718      H1719   1.084       .  S
C1721      C1722   1.415       .  A
C1721      C1726   1.399       .  A
C1721      C1941   1.483       .  S
C1722      C1723   1.400       .  A
C1722      C1861   1.476       .  S
C1723      C1724   1.398       .  A
C1723      H1728   1.084       .  S
C1724      C1725   1.410       .  A
C1724      C1877   1.477       .  S
C1725      C1726   1.399       .  A
C1725      C1922   1.476       .  S
C1726      H1727   1.084       .  S
C1729      C1730   1.405       .  A
C1729      C1734   1.404       .  A
C1729      H1736   1.084       .  S
C1730      C1731   1.413       .  A
C1731      C1732   1.398       .  A
C1731      C1738   1.508       .  S
C1732      C1733   1.400       .  A
C1732      H1737   1.084       .  S
C1733      C1734   1.410       .  A
C1734      C1735   1.507       .  S
C1735      H1739   1.111       .  S
C1735      H1740   1.110       .  S
C1735      H1741   1.109       .  S
C1738      H1742   1.109       .  S
C1738      H1743   1.110       .  S
C1738      H1744   1.111       .  S
C1745      C1746   1.403       .  A
C1745      C1750   1.404       .  A
C1745      H1752   1.084       .  S
C1746      C1747   1.408       .  A
C1747      C1748   1.401       .  A
C1747      C1754   1.506       .  S
C1748      C1749   1.404       .  A
C1748      H1753   1.083       .  S
C1749      C1750   1.411       .  A
C1750      C1751   1.507       .  S
C1751      H1755   1.111       .  S
C1751      H1756   1.109       .  S
C1751      H1757   1.110       .  S
C1754      H1758   1.110       .  S
C1754      H1759   1.110       .  S
C1754      H1760   1.111       .  S
C1761      C1762   1.404       .  A
C1761      C1766   1.404       .  A
C1761      H1768   1.084       .  S
C1762      C1763   1.407       .  A
C1763      C1764   1.401       .  A
C1763      C1770   1.506       .  S
C1764      C1765   1.405       .  A
C1764      H1769   1.083       .  S
C1765      C1766   1.411       .  A
C1767      H1771   1.111       .  S
C1767      H1773   1.107       .  S
C1770      H1774   1.110       .  S
C1770      H1775   1.110       .  S
C1770      H1776   1.111       .  S
C1777      C1778   1.404       .  A
C1777      C1782   1.398       .  A
C1778      C1779   1.412       .  A
C1779      C1780   1.405       .  A
C1779      C1786   1.508       .  S
C1780      C1781   1.404       .  A
C1780      H1785   1.084       .  S
C1781      C1782   1.408       .  A
C1782      C1783   1.507       .  S
C1783      H1788   1.109       .  S
C1783      H1789   1.111       .  S
C1786      H1790   1.107       .  S
C1786      H1791   1.109       .  S
C1786      H1792   1.111       .  S
C1793      C1794   1.409       .  A
C1793      C1798   1.399       .  A
C1793      H1800   1.083       .  S
C1794      C1795   1.420       .  A
C1795      C1796   1.403       .  A
C1795      C1802   1.508       .  S
C1796      C1797   1.402       .  A
C1796      H1801   1.083       .  S
C1797      C1798   1.409       .  A
C1798      C1799   1.508       .  S
C1799      H1803   1.111       .  S
C1799      H1804   1.110       .  S
C1799      H1805   1.109       .  S
C1802      H1806   1.110       .  S
C1802      H1807   1.110       .  S
C1802      H1808   1.111       .  S
C1809      C1810   1.403       .  A
C1809      C1814   1.401       .  A
C1809      H1816   1.085       .  S
C1810      C1811   1.414       .  A
C1811      C1812   1.403       .  A
C1811      C1818   1.507       .  S
C1812      C1813   1.403       .  A
C1812      H1817   1.082       .  S
C1813      C1814   1.415       .  A
C1814      C1815   1.507       .  S
C1815      H1819   1.111       .  S
C1815      H1820   1.110       .  S
C1815      H1821   1.106       .  S
C1818      H1822   1.110       .  S
C1818      H1823   1.110       .  S
C1818      H1824   1.111       .  S
C1825      C1826   1.403       .  A
C1825      C1830   1.404       .  A
C1825      H1832   1.084       .  S
C1826      C1827   1.415       .  A
C1827      C1828   1.403       .  A
C1827      C1834   1.508       .  S
C1828      C1829   1.402       .  A
C1828      H1833   1.084       .  S
C1829      C1830   1.411       .  A
C1831      H1835   1.111       .  S
C1831      H1836   1.110       .  S
C1831      H1837   1.102       .  S
C1834      H1838   1.109       .  S
C1834      H1839   1.111       .  S
C1834      H1840   1.111       .  S
C1841      C1842   1.406       .  A
C1841      C1846   1.405       .  A
C1841      H1848   1.084       .  S
C1842      C1843   1.420       .  A
C1843      C1844   1.401       .  A
C1843      C1850   1.509       .  S
C1844      C1845   1.399       .  A
C1845      C1846   1.410       .  A
C1846      C1847   1.503       .  S
C1847      H1851   1.111       .  S
C1847      H1852   1.103       .  S
C1847      H1853   1.110       .  S
C1850      H1854   1.111       .  S
C1850      H1855   1.109       .  S
C1857      C1858   1.401       .  A
C1857      C1862   1.399       .  A
C1857      H1864   1.085       .  S
C1858      C1859   1.411       .  A
C1859      C1860   1.401       .  A
C1859      C1866   1.507       .  S
C1860      C1861   1.402       .  A
C1860      H1865   1.084       .  S
C1861      C1862   1.413       .  A
C1862      C1863   1.507       .  S
C1863      H1867   1.110       .  S
C1863      H1868   1.110       .  S
C1863      H1869   1.108       .  S
C1866      H1870   1.110       .  S
C1866      H1871   1.110       .  S
C1866      H1872   1.111       .  S
C1873      C1874   1.404       .  A
C1873      C1878   1.401       .  A
C1873      H1880   1.085       .  S
C1874      C1875   1.413       .  A
C1875      C1876   1.400       .  A
C1875      C1882   1.508       .  S
C1876      C1877   1.402       .  A
C1876      H1881   1.084       .  S
C1877      C1878   1.412       .  A
C1878      C1879   1.507       .  S
C1879      H1883   1.110       .  S
C1879      H1884   1.108       .  S
C1879      H1885   1.110       .  S
C1882      H1886   1.111       .  S
C1882      H1887   1.109       .  S
C1882      H1888   1.111       .  S
C1889      C1890   1.410       .  A
C1889      C1894   1.400       .  A
C1889      H1896   1.083       .  S
C1890      C1891   1.422       .  A
C1891      C1892   1.404       .  A
C1891      C1898   1.508       .  S
C1892      C1893   1.401       .  A
C1893      C1894   1.408       .  A
C1894      C1895   1.508       .  S
C1895      H1899   1.111       .  S
C1895      H1900   1.110       .  S
C1895      H1901   1.110       .  S
C1898      H1902   1.110       .  S
C1898      H1903   1.110       .  S
C1905      C1906   1.402       .  A
C1905      C1910   1.402       .  A
C1905      H1912   1.084       .  S
C1906      C1907   1.417       .  A
C1907      C1908   1.400       .  A
C1907      C1914   1.509       .  S
C1908      C1909   1.400       .  A
C1908      H1913   1.085       .  S
C1909      C1910   1.411       .  A
C1911      H1915   1.111       .  S
C1911      H1916   1.102       .  S
C1911      H1917   1.110       .  S
C1914      H1918   1.110       .  S
C1914      H1919   1.109       .  S
C1914      H1920   1.111       .  S
C1921      C1922   1.400       .  A
C1921      C1926   1.403       .  A
C1921      H1928   1.084       .  S
C1922      C1923   1.411       .  A
C1923      C1924   1.396       .  A
C1923      C1930   1.509       .  S
C1924      C1925   1.407       .  A
C1924      H1929   1.085       .  S
C1925      C1926   1.420       .  A
C1926      C1927   1.508       .  S
C1927      H1931   1.111       .  S
C1927      H1932   1.110       .  S
C1927      H1933   1.110       .  S
C1930      H1934   1.106       .  S
C1930      H1935   1.110       .  S
C1930      H1936   1.110       .  S
C1937      C1938   1.403       .  A
C1937      C1942   1.402       .  A
C1937      H1944   1.084       .  S
C1938      C1939   1.413       .  A
C1939      C1940   1.401       .  A
C1939      C1946   1.507       .  S
C1940      C1941   1.402       .  A
C1940      H1945   1.083       .  S
C1941      C1942   1.412       .  A
C1942      C1943   1.507       .  S
C1943      H1947   1.111       .  S
C1943      H1948   1.109       .  S
C1943      H1949   1.108       .  S
C1946      H1950   1.110       .  S
C1946      H1951   1.110       .  S
C1946      H1952   1.111       .  S
C1953      C1954   1.403       .  A
C1953      C1958   1.404       .  A
C1953      H1960   1.084       .  S
C1954      C1955   1.407       .  A
C1955      C1956   1.400       .  A
C1955      C1962   1.506       .  S
C1956      C1957   1.406       .  A
C1957      C1958   1.414       .  A
C1958      C1959   1.509       .  S
C1959      H1963   1.111       .  S
C1959      H1964   1.108       .  S
C1959      H1965   1.109       .  S
C1962      H1966   1.110       .  S
C1962      H1967   1.110       .  S
C1969      C1970   1.402       .  A
C1969      C1974   1.400       .  A
C1970      C1971   1.409       .  A
C1971      C1972   1.401       .  A
C1971      C1978   1.507       .  S
C1972      C1973   1.402       .  A
C1972      H1977   1.084       .  S
C1973      C1974   1.412       .  A
C1974      C1975   1.507       .  S
C1975      H1980   1.110       .  S
C1975      H1981   1.109       .  S
C1978      H1982   1.109       .  S
C1978      H1983   1.110       .  S
C1978      H1984   1.111       .  S
