geometry optimzed in LAMMPS
_audit_creation_date              2020-11-30 
_audit_creation_method            'lammps2cif' 
_symmetry_space_group_name_H-M    'P1' 
_symmetry_Int_Tables_number       1 
_symmetry_cell_setting            triclinic 
loop_ 
_symmetry_equiv_pos_as_xyz 
  x,y,z 
_cell_length_a                    32.34886051 
_cell_length_b                    32.43066798689802 
_cell_length_c                    61.48597132654635 
_cell_angle_alpha                 89.93845152480456 
_cell_angle_beta                  90.82303876430656 
_cell_angle_gamma                 120.15467302608089 
loop_ 
_atom_site_label 
_atom_site_type_symbol 
_atom_site_fract_x 
_atom_site_fract_y 
_atom_site_fract_z 
_atom_site_charge 
O1          O  0.25420989  0.17629783  0.80270101    -0.79600
C2          C  0.28010350  0.05568155  0.79773087     0.81400
O3          O  0.26622004  0.12772718  0.87661587    -0.80700
O4          O  0.39379861  0.11011594  0.84791181    -0.82200
O5          O  0.42601805  0.24650055  0.80394502    -0.82000
O6          O  0.32233084  0.24566829  0.80278811    -0.80600
Zn7        Zn  0.26822068  0.13243927  0.82116325     1.55700
O8          O  0.42741068  0.17838862  0.80445777    -0.82000
Cd9        Cd  0.36688935  0.23220352  0.82204319     1.59700
Cd10       Cd  0.33523190  0.16486255  0.86528003     1.59600
O11         O  0.38852702  0.27949091  0.84790292    -0.82000
O12         O  0.33367329  0.16506241  0.83263151    -1.92500
Cd13       Cd  0.36846617  0.13265376  0.82237031     1.59900
O14         O  0.36837553  0.23404481  0.87753813    -0.82000
O15         O  0.32339557  0.07289397  0.80407550    -0.80600
C16         C  0.22569063  0.10837366  0.86684459     0.81900
C17         C  0.27871946  0.21979361  0.79691706     0.81600
O18         O  0.25577434  0.07534310  0.80265229    -0.79600
C19         C  0.44503394  0.22175278  0.79878150     0.82400
O20         O  0.22195501  0.10861302  0.84615836    -0.79700
C21         C  0.38686253  0.27483877  0.86851499     0.82500
C22         C  0.39201831  0.11206503  0.86852876     0.82800
O23         O  0.37109575  0.13163629  0.87774135    -0.82100
C24         C  0.16245189  0.33075219  0.71474522     0.85400
C25         C  0.18895694  0.38110417  0.72486138    -0.54900
C26         C  0.19153548  0.38162810  0.74703617     0.08300
C27         C  0.16712117  0.33175326  0.75724231     0.19200
C28         C  0.18757545  0.30498905  0.72432280    -0.55600
C29         C  0.19005106  0.30570463  0.74646212     0.08400
C30         C  0.11324742  0.30677611  0.72570798    -0.55100
C31         C  0.11588819  0.30732434  0.74788173     0.09000
H32         H  0.20430858  0.41352783  0.71530056     0.13500
H33         H  0.16905336  0.33217951  0.77530712    -0.00800
H34         H  0.20233490  0.28788618  0.71443736     0.13800
H35         H  0.07900202  0.29058709  0.71731058     0.13600
C36         C  0.00757671  0.00064388  0.95205335     0.85400
C37         C  0.48369289  0.02704981  0.94202725    -0.54900
C38         C  0.48079692  0.02562597  0.91976156     0.08300
C39         C  0.00329349  0.99793018  0.90967090     0.19200
C40         C  0.47978112  0.45004300  0.94240207    -0.55600
C41         C  0.47716328  0.44829085  0.92020928     0.08400
C42         C  0.05680186  0.02339200  0.94117546    -0.55100
C43         C  0.05477750  0.02195428  0.91895139     0.09000
H44         H  0.47085833  0.04565460  0.95203941     0.13500
H45         H  0.00189284  0.99572522  0.89177067    -0.00800
H46         H  0.46276054  0.41846847  0.95248356     0.13800
H47         H  0.09060565  0.04045357  0.94986766     0.13600
O48         O  0.48870149  0.40971286  0.46994083    -0.79600
C49         C  0.11081154  0.05604348  0.46598123     0.81400
O50         O  0.03675396  0.46725897  0.54417004    -0.80700
O51         O  0.05667857  0.11469591  0.51471105    -0.82200
O52         O  0.41872459  0.01119256  0.47028502    -0.82000
O53         O  0.41942372  0.40859920  0.46905186    -0.80600
Zn54       Zn  0.03314448  0.46691338  0.48878575     1.55700
O55         O  0.48747957  0.08053135  0.47076624    -0.82000
Cd56       Cd  0.43330382  0.46611442  0.48846760     1.57000
Cd57       Cd  0.00143467  0.50108510  0.53221400     1.59600
O58         O  0.38602732  0.44056106  0.51389353    -0.82000
O59         O  0.00085081  0.49977984  0.49958766    -1.92500
Cd60       Cd  0.03352520  0.06708064  0.48917760     1.59900
O61         O  0.43201348  0.46693277  0.54384376    -0.82000
O62         O  0.09366731  0.08211135  0.47173515    -0.80600
C63         C  0.05548868  0.44575368  0.53473324     0.81900
C64         C  0.44520261  0.39098284  0.46358064     0.81600
O65         O  0.09087866  0.01199933  0.47097492    -0.79600
C66         C  0.44365072  0.05495491  0.46505307     0.82400
O67         O  0.05579941  0.44268687  0.51405095    -0.79700
C68         C  0.39095669  0.44462164  0.53451399     0.82500
C69         C  0.05582885  0.11084290  0.53532008     0.82800
O70         O  0.03668950  0.07027928  0.54454069    -0.82100
C71         C  0.32890937  0.16349764  0.38142944     0.85400
C72         C  0.27944308  0.13953765  0.39226775    -0.54900
C73         C  0.28166569  0.14184265  0.41449137     0.08300
C74         C  0.33288774  0.16783798  0.42395966     0.19200
C75         C  0.35501764  0.21459189  0.39082144    -0.55600
C76         C  0.35731438  0.21671546  0.41296198     0.08400
C77         C  0.35408062  0.13874921  0.39196298    -0.55100
C78         C  0.35624151  0.14110946  0.41414967     0.09000
H79         H  0.24536150  0.12216464  0.38370355     0.13500
H80         H  0.33465529  0.16965772  0.44202057    -0.00800
H81         H  0.37058866  0.24635327  0.38080683     0.13800
H82         H  0.36895953  0.12094804  0.38265618     0.13600
C83         C  0.17190347  0.33765863  0.61905692     0.85400
C84         C  0.14640170  0.28729988  0.60902023    -0.54900
C85         C  0.14458448  0.28589769  0.58671721     0.08300
C86         C  0.16898620  0.33629926  0.57665293     0.19200
C87         C  0.22146294  0.36262205  0.60846627    -0.55600
C88         C  0.22001952  0.36205294  0.58630082     0.08400
C89         C  0.14599917  0.36215126  0.60908008    -0.55100
C90         C  0.14411103  0.36135533  0.58684845     0.09000
H91         H  0.13054038  0.25583331  0.61913739     0.13500
H92         H  0.16919141  0.33775721  0.55874119    -0.00800
H93         H  0.25519049  0.37846588  0.61721746     0.13800
H94         H  0.12972237  0.37780536  0.61891107     0.13600
O95         O  0.17818259  0.24864464  0.19535503    -0.79600
C96         C  0.05931295  0.27705466  0.20147355     0.81400
O97         O  0.13702587  0.26249084  0.12181998    -0.80700
O98         O  0.11061509  0.38580952  0.15174661    -0.82200
O99         O  0.24981695  0.42260430  0.19759840    -0.82000
O100        O  0.24675481  0.31773273  0.19844897    -0.80600
Zn101      Zn  0.13409075  0.26379486  0.17718515     1.55700
O102        O  0.18229805  0.42495343  0.19577753    -0.82000
Cd103      Cd  0.23527901  0.36322060  0.17919432     1.59700
Cd104      Cd  0.16995326  0.33124543  0.13462980     1.59600
O105        O  0.28427968  0.38693977  0.15437351    -0.82000
O106        O  0.16841558  0.32969403  0.16725274    -1.92500
Cd107      Cd  0.13631975  0.36464820  0.17775159     1.59900
O108        O  0.23964170  0.36800641  0.12405310    -0.82000
O109        O  0.07887680  0.32121733  0.19694008    -0.80600
C110        C  0.11373272  0.22200794  0.13100826     0.81900
C111        C  0.22104373  0.27347837  0.20263525     0.81600
O112        O  0.07626490  0.25134052  0.19484070    -0.79600
C113        C  0.22553818  0.44239121  0.20227786     0.82400
O114        O  0.10948952  0.21833482  0.15160288    -0.79700
C115        C  0.28027763  0.38706659  0.13371982     0.82500
C116        C  0.11327342  0.38418115  0.13112933     0.82800
O117        O  0.13501187  0.36526612  0.12205974    -0.82100
C118        C  0.99791554  0.99555090  0.04780119     0.85400
C119        C  0.02327811  0.47047211  0.05764148    -0.54900
C120        C  0.02596815  0.47155427  0.07985616     0.08300
C121        C  0.00242606  0.99800258  0.09017627     0.19200
C122        C  0.44869950  0.47108998  0.05878453    -0.55600
C123        C  0.45073370  0.47267109  0.08107354     0.08400
C124        C  0.02414498  0.04614182  0.05754213    -0.55100
C125        C  0.02659242  0.04770383  0.07972842     0.09000
H126        H  0.03678675  0.45243719  0.04763187     0.13500
H127        H  0.00571706  0.00031088  0.10805617    -0.00800
H128        H  0.41510304  0.45292089  0.04999548     0.13800
H129        H  0.03839583  0.07789805  0.04757320     0.13600
C130        C  0.34029303  0.16721080  0.28557383     0.85400
C131        C  0.38982815  0.19366104  0.27480873    -0.54900
C132        C  0.38783800  0.19237450  0.25258808     0.08300
C133        C  0.33672201  0.16522515  0.24301287     0.19200
C134        C  0.31327819  0.19057977  0.27553674    -0.55600
C135        C  0.31110690  0.18928074  0.25333430     0.08400
C136        C  0.31606016  0.11668957  0.27558450    -0.55100
C137        C  0.31413512  0.11586432  0.25342233     0.09000
H138        H  0.42384839  0.21144333  0.28341215     0.13500
H139        H  0.33511066  0.16432537  0.22494311    -0.00800
H140        H  0.29692475  0.20644813  0.28519037     0.13800
H141        H  0.30126260  0.08438596  0.28521169     0.13600
C142        C  0.36820180  0.42005050  0.12950484    -0.14500
C143        C  0.32398401  0.41007776  0.12055091     0.07700
C144        C  0.32184488  0.42235881  0.09885127    -0.14500
C145        C  0.36292509  0.44352457  0.08626636    -0.14500
C146        C  0.40716926  0.45205549  0.09488866     0.07700
C147        C  0.40917602  0.44053874  0.11681826    -0.14500
H148        H  0.37102173  0.41116360  0.14624084     0.11700
H149        H  0.28840887  0.41600136  0.09161289     0.11700
H150        H  0.35960723  0.45345262  0.06982381     0.11700
H151        H  0.44189545  0.44632619  0.12435668     0.11700
C152        C  0.10788610  0.17730781  0.09673493    -0.14500
C153        C  0.09098832  0.17801522  0.11756664     0.07700
C154        C  0.05228188  0.13601976  0.12563775    -0.14500
C155        C  0.03104563  0.09413505  0.11321118    -0.14500
C156        C  0.04859873  0.09293487  0.09257734     0.07700
C157        C  0.08715583  0.13512482  0.08443096    -0.14500
H158        H  0.13781550  0.20912048  0.09014259     0.11700
H159        H  0.03800881  0.13567279  0.14150697     0.11700
H160        H  0.50042751  0.06293437  0.11975828     0.11700
H161        H  0.10193905  0.13544869  0.06871401     0.11700
C162        C  0.08328676  0.44009644  0.08368170    -0.14500
C163        C  0.04816163  0.44826716  0.09269240     0.07700
C164        C  0.03420878  0.43380976  0.11419251    -0.14500
C165        C  0.05524949  0.41291630  0.12649741    -0.14500
C166        C  0.09039495  0.40508809  0.11756618     0.07700
C167        C  0.10386335  0.41836603  0.09592972    -0.14500
H168        H  0.09573390  0.45123160  0.06732003     0.11700
H169        H  0.00661165  0.43790962  0.12168679     0.11700
H170        H  0.04363188  0.40252014  0.14304556     0.11700
H171        H  0.13109091  0.41299501  0.08863816     0.11700
C172        C  0.29848461  0.25732076  0.24451082    -0.14500
C173        C  0.28711818  0.21016907  0.24056012     0.07700
C174        C  0.25294180  0.18328853  0.22441147    -0.14500
C175        C  0.23003645  0.20321399  0.21252478    -0.14500
C176        C  0.24221211  0.25082117  0.21614968     0.07700
C177        C  0.27674934  0.27767674  0.23221471    -0.14500
H178        H  0.32495432  0.27870265  0.25683037     0.11700
H179        H  0.24369296  0.14681204  0.22115449     0.11700
H180        H  0.20382515  0.18190702  0.20010903     0.11700
H181        H  0.28680683  0.31444864  0.23532297     0.11700
C182        C  0.29648721  0.00791123  0.22223707    -0.14500
C183        C  0.24823550  0.48683142  0.21554025     0.07700
C184        C  0.22200732  0.50880022  0.22157759    -0.14500
C185        C  0.24353362  0.05078162  0.23399414    -0.14500
C186        C  0.29149440  0.07139623  0.24059666     0.07700
C187        C  0.31791973  0.04989695  0.23466001    -0.14500
H188        H  0.31776756  0.99206308  0.21783975     0.11700
H189        H  0.18483599  0.49358506  0.21671326     0.11700
H190        H  0.22278522  0.06715205  0.23850353     0.11700
H191        H  0.35512667  0.06569979  0.23960233     0.11700
C192        C  0.00940021  0.28191113  0.23090055    -0.14500
C193        C  0.01554983  0.25524167  0.21459857     0.07700
C194        C  0.47903657  0.20804368  0.21059666    -0.14500
C195        C  0.43691131  0.18803877  0.22258170    -0.14500
C196        C  0.43130025  0.21439801  0.23917117     0.07700
C197        C  0.46793249  0.26142729  0.24330415    -0.14500
H198        H  0.03701783  0.31839484  0.23426293     0.11700
H199        H  0.48278674  0.18695389  0.19797246     0.11700
H200        H  0.40912195  0.15163022  0.21922076     0.11700
H201        H  0.46419186  0.28241690  0.25598646     0.11700
C202        C  0.37554598  0.18581911  0.34662401    -0.14500
C203        C  0.33059668  0.16304654  0.35658721     0.07700
C204        C  0.28953066  0.14117347  0.34304137    -0.14500
C205        C  0.29356195  0.14277650  0.32040185    -0.14500
C206        C  0.33851177  0.16622054  0.31043414     0.07700
C207        C  0.37957596  0.18755550  0.32399535    -0.14500
H208        H  0.40794897  0.20275395  0.35651422     0.11700
H209        H  0.25396615  0.12264542  0.34948916     0.11700
H210        H  0.26117301  0.12567036  0.31050817     0.11700
H211        H  0.41516347  0.20580956  0.31758357     0.11700
C212        C  0.19170250  0.12466241  0.45744016    -0.14500
C213        C  0.15502811  0.07762049  0.45319311     0.07700
C214        C  0.16072929  0.05155425  0.43647762    -0.14500
C215        C  0.20180872  0.07261474  0.42381784    -0.14500
C216        C  0.23845519  0.11959681  0.42806714     0.07700
C217        C  0.23346286  0.14524501  0.44518209    -0.14500
H218        H  0.18819996  0.14531707  0.47037123     0.11700
H219        H  0.13293524  0.01528330  0.43290392     0.11700
H220        H  0.20520027  0.05206711  0.41080369     0.11700
H221        H  0.26133713  0.18151489  0.44870460     0.11700
C222        C  0.44779749  0.32190901  0.44654832    -0.14500
C223        C  0.42366557  0.34732458  0.44981184     0.07700
C224        C  0.37796497  0.32979907  0.44028164    -0.14500
C225        C  0.35671748  0.28760050  0.42802534    -0.14500
C226        C  0.38058134  0.26205642  0.42521191     0.07700
C227        C  0.42629283  0.27949838  0.43440616    -0.14500
H228        H  0.48298172  0.33439023  0.45364459     0.11700
H229        H  0.35845176  0.34853806  0.44239744     0.11700
H230        H  0.32136459  0.27447699  0.42097989     0.11700
H231        H  0.44533123  0.26034414  0.43215120     0.11700
C232        C  0.38488335  0.04960398  0.43672736    -0.14500
C233        C  0.42093045  0.07679211  0.45214675     0.07700
C234        C  0.43477485  0.12495541  0.45530736    -0.14500
C235        C  0.41282557  0.14553619  0.44330163    -0.14500
C236        C  0.37795387  0.11876085  0.42743742     0.07700
C237        C  0.36407373  0.07065101  0.42422998    -0.14500
H238        H  0.37349706  0.01236225  0.43406304     0.11700
H239        H  0.46209724  0.14647692  0.46728896     0.11700
H240        H  0.42371470  0.18256800  0.44610603     0.11700
H241        H  0.33678979  0.04930010  0.41219972     0.11700
C242        C  0.30531819  0.38313631  0.54028964    -0.14500
C243        C  0.34758586  0.42318335  0.54789106     0.07700
C244        C  0.34767517  0.44325904  0.56809774    -0.14500
C245        C  0.30613961  0.42393718  0.58039416    -0.14500
C246        C  0.26387807  0.38349268  0.57293798     0.07700
C247        C  0.26400123  0.36324507  0.55277015    -0.14500
H248        H  0.30442395  0.36678111  0.52480986     0.11700
H249        H  0.37961662  0.47454033  0.57418437     0.11700
H250        H  0.30708618  0.44108320  0.59562884     0.11700
H251        H  0.23248791  0.33151874  0.54674001     0.11700
C252        C  0.08701969  0.15397862  0.57097904    -0.14500
C253        C  0.07779981  0.15493502  0.54868272     0.07700
C254        C  0.09036387  0.19880741  0.53901740    -0.14500
C255        C  0.11150661  0.24076946  0.55130690    -0.14500
C256        C  0.12134624  0.24043331  0.57366861     0.07700
C257        C  0.10885658  0.19616052  0.58327645    -0.14500
H258        H  0.07807841  0.12070839  0.57887796     0.11700
H259        H  0.08351698  0.20079976  0.52186230     0.11700
H260        H  0.11948229  0.27300691  0.54291925     0.11700
H261        H  0.11637406  0.19353566  0.60022110     0.11700
C262        C  0.07853850  0.38359546  0.54065387    -0.14500
C263        C  0.07751731  0.42388897  0.54817275     0.07700
C264        C  0.09764487  0.44308717  0.56868024    -0.14500
C265        C  0.11914420  0.42284065  0.58127679    -0.14500
C266        C  0.12034931  0.38251683  0.57375697     0.07700
C267        C  0.09926460  0.36286220  0.55340781    -0.14500
H268        H  0.06264307  0.36766973  0.52503462     0.11700
H269        H  0.09759670  0.47437390  0.57479211     0.11700
H270        H  0.13557254  0.43937026  0.59671392     0.11700
H271        H  0.09818724  0.33111677  0.54734552     0.11700
C272        C  0.04387156  0.01776485  0.01291006    -0.14500
C273        C  0.99908744  0.99623421  0.02297776     0.07700
C274        C  0.45781114  0.47699581  0.00956990    -0.14500
C275        C  0.46152140  0.47909102  0.98695160    -0.14500
C276        C  0.00630489  0.00028250  0.97688028     0.07700
C277        C  0.04757983  0.01975765  0.99029848    -0.14500
H278        H  0.07640820  0.03319854  0.02270599     0.11700
H279        H  0.42232991  0.46041289  0.01604074     0.11700
H280        H  0.42899592  0.46387926  0.97715494     0.11700
H281        H  0.08307859  0.03666262  0.98384529     0.11700
C282        C  0.20824158  0.35462189  0.67989666    -0.14500
C283        C  0.16351427  0.33186194  0.68996775     0.07700
C284        C  0.12213350  0.31118008  0.67660150    -0.14500
C285        C  0.12571798  0.31365299  0.65397310    -0.14500
C286        C  0.17049275  0.33661745  0.64388739     0.07700
C287        C  0.21182915  0.35713809  0.65731039    -0.14500
H288        H  0.24082679  0.37075831  0.68967177     0.11700
H289        H  0.08668802  0.29281600  0.68314626     0.11700
H290        H  0.09314910  0.29732999  0.64419275     0.11700
H291        H  0.24739572  0.37536082  0.65091855     0.11700
C292        C  0.42473098  0.31833117  0.90332679    -0.14500
C293        C  0.40746364  0.31824656  0.88224951     0.07700
C294        C  0.41122530  0.36045234  0.87412572    -0.14500
C295        C  0.43252360  0.40214362  0.88668842    -0.14500
C296        C  0.45163456  0.40292839  0.90747534     0.07700
C297        C  0.44699162  0.36031146  0.91573191    -0.14500
H298        H  0.42241394  0.28629450  0.90995844     0.11700
H299        H  0.39745910  0.36117879  0.85805228     0.11700
H300        H  0.43367585  0.43358346  0.88003620     0.11700
H301        H  0.96165389  0.35948383  0.93154138     0.11700
C302        C  0.18243382  0.06735446  0.90065655    -0.14500
C303        C  0.18185244  0.08510542  0.87989281     0.07700
C304        C  0.13911568  0.08079849  0.87177705    -0.14500
C305        C  0.09801912  0.06019565  0.88438779    -0.14500
C306        C  0.09838191  0.04263800  0.90526568     0.07700
C307        C  0.14106189  0.04589691  0.91310266    -0.14500
H308        H  0.21479112  0.06962128  0.90719223     0.11700
H309        H  0.13775652  0.09446141  0.85586402     0.11700
H310        H  0.06650077  0.05927537  0.87783875     0.11700
H311        H  0.14266404  0.03169161  0.92882078     0.11700
C312        C  0.44653276  0.07873912  0.87231243    -0.14500
C313        C  0.41487375  0.09077692  0.88189750     0.07700
C314        C  0.40485744  0.08143054  0.90407647    -0.14500
C315        C  0.42579829  0.06007880  0.91632530    -0.14500
C316        C  0.45796724  0.04825773  0.90677897     0.07700
C317        C  0.46786434  0.05802582  0.88456310    -0.14500
H318        H  0.45521579  0.08564508  0.85526051     0.11700
H319        H  0.38017532  0.08983793  0.91189167     0.11700
H320        H  0.41586417  0.05226036  0.93316871     0.11700
H321        H  0.49236721  0.05032174  0.87634413     0.11700
C322        C  0.20911391  0.21336594  0.77519103    -0.14500
C323        C  0.25613796  0.24127389  0.78337041     0.07700
C324        C  0.28126014  0.29046197  0.77887986    -0.14500
C325        C  0.25967941  0.31129939  0.76680210    -0.14500
C326        C  0.21280201  0.28338144  0.75888596     0.07700
C327        C  0.18767644  0.23430400  0.76299336    -0.14500
H328        H  0.18881490  0.17543557  0.77829919     0.11700
H329        H  0.31749566  0.31304291  0.78489098     0.11700
H330        H  0.27959010  0.34919426  0.76358346     0.11700
H331        H  0.15136539  0.21236226  0.75692643     0.11700
C332        C  0.02423274  0.23139377  0.78938026    -0.14500
C333        C  0.48902399  0.24408416  0.78595229     0.07700
C334        C  0.49630374  0.27846784  0.77026652    -0.14500
C335        C  0.03768559  0.29906871  0.75786631    -0.14500
C336        C  0.07291765  0.28655328  0.76140837     0.07700
C337        C  0.06627914  0.25306469  0.77739957    -0.14500
H338        H  0.01945209  0.20516088  0.80150441     0.11700
H339        H  0.46959420  0.28870363  0.76732977     0.11700
H340        H  0.04240040  0.32501037  0.74559467     0.11700
H341        H  0.09308489  0.24290348  0.78022912     0.11700
C342        C  0.27179847  0.47729192  0.78745475    -0.14500
C343        C  0.25747689  0.01134305  0.78459721     0.07700
C344        C  0.22113109  0.00232102  0.76932105    -0.14500
C345        C  0.20015341  0.46038901  0.75685422    -0.14500
C346        C  0.21416447  0.42622807  0.75995313     0.07700
C347        C  0.24974471  0.43472445  0.77547531    -0.14500
H348        H  0.29948723  0.48322923  0.79924538     0.11700
H349        H  0.20945743  0.02798992  0.76681822     0.11700
H350        H  0.17245537  0.45421136  0.74501960     0.11700
H351        H  0.26090336  0.40872874  0.77811051     0.11700
O352        O  0.25419767  0.67629809  0.80271100    -0.79600
C353        C  0.28009142  0.55568037  0.79773659     0.81400
O354        O  0.26622374  0.62771666  0.87662223    -0.80700
O355        O  0.39380972  0.61012024  0.84790970    -0.82200
O356        O  0.42601081  0.74649587  0.80394065    -0.82000
O357        O  0.32232419  0.74566222  0.80278866    -0.80600
Zn358      Zn  0.26821537  0.63243863  0.82116911     1.55700
O359        O  0.42739722  0.67838132  0.80444962    -0.82000
Cd360      Cd  0.36688494  0.73219684  0.82204189     1.59700
Cd361      Cd  0.33523248  0.66485584  0.86528167     1.59600
O362        O  0.38852797  0.77948277  0.84790137    -0.82000
O363        O  0.33367054  0.66505828  0.83263318    -1.92500
Cd364      Cd  0.36846362  0.63265188  0.82237005     1.59900
O365        O  0.36838034  0.73403980  0.87753781    -0.82000
O366        O  0.32338320  0.57288964  0.80408084    -0.80600
C367        C  0.22569379  0.60836241  0.86685155     0.81900
C368        C  0.27870901  0.71979082  0.79692277     0.81600
O369        O  0.25576468  0.57534493  0.80265688    -0.79600
C370        C  0.44502260  0.72174620  0.79877391     0.82400
O371        O  0.22195699  0.60860634  0.84616564    -0.79700
C372        C  0.38686698  0.77483276  0.86851353     0.82500
C373        C  0.39202489  0.61206359  0.86852674     0.82800
O374        O  0.37109643  0.63162809  0.87773981    -0.82100
C375        C  0.16244859  0.83074390  0.71474202     0.85400
C376        C  0.18895287  0.88109725  0.72485709    -0.54900
C377        C  0.19153272  0.88162353  0.74703195     0.08300
C378        C  0.16711753  0.83174969  0.75723936     0.19200
C379        C  0.18757497  0.80498435  0.72432098    -0.55600
C380        C  0.19004867  0.80570115  0.74646051     0.08400
C381        C  0.11324408  0.80676860  0.72570500    -0.55100
C382        C  0.11588507  0.80731959  0.74787857     0.09000
H383        H  0.20430487  0.91351995  0.71529567     0.13500
H384        H  0.16904926  0.83217767  0.77530422    -0.00800
H385        H  0.20233546  0.78788120  0.71443639     0.13800
H386        H  0.07899823  0.79058087  0.71730805     0.13600
C387        C  0.00757628  0.50064736  0.95205591     0.85400
C388        C  0.48369871  0.52705836  0.94202830    -0.54900
C389        C  0.48080294  0.52563104  0.91976275     0.08300
C390        C  0.00329361  0.49792940  0.90967327     0.19200
C391        C  0.47978764  0.95004049  0.94239850    -0.55600
C392        C  0.47716874  0.94828970  0.92020574     0.08400
C393        C  0.05680130  0.52338824  0.94117819    -0.55100
C394        C  0.05477711  0.52194708  0.91895425     0.09000
H395        H  0.47086556  0.54566765  0.95203853     0.13500
H396        H  0.00189003  0.49572346  0.89177263    -0.00800
H397        H  0.46277042  0.91846555  0.95247980     0.13800
H398        H  0.09060554  0.54044983  0.94987012     0.13600
O399        O  0.48871289  0.90971983  0.46994563    -0.79600
C400        C  0.11080824  0.55603269  0.46597979     0.81400
O401        O  0.03676328  0.96728389  0.54417349    -0.80700
O402        O  0.05667626  0.61467777  0.51471153    -0.82200
O403        O  0.41872027  0.51118304  0.47028954    -0.82000
O404        O  0.41943632  0.90860787  0.46905066    -0.80600
Zn405      Zn  0.03314925  0.96692857  0.48878812     1.55700
O406        O  0.48747543  0.58052117  0.47077034    -0.82000
Cd407      Cd  0.43330736  0.96612366  0.48846540     1.57000
Cd408      Cd  0.00143260  0.00109929  0.53221492     1.59600
O409        O  0.38602615  0.94056199  0.51389049    -0.82000
O410        O  0.00085280  0.99979398  0.49958815    -1.92500
Cd411      Cd  0.03352155  0.56706585  0.48917793     1.59900
O412        O  0.43200783  0.96693098  0.54384221    -0.82000
O413        O  0.09366223  0.58209856  0.47173439    -0.80600
C414        C  0.05550028  0.94578098  0.53473618     0.81900
C415        C  0.44521548  0.89098908  0.46358317     0.81600
O416        O  0.09087653  0.51198793  0.47097288    -0.79600
C417        C  0.44364592  0.55494550  0.46505845     0.82400
O418        O  0.05580951  0.94271457  0.51405400    -0.79700
C419        C  0.39095214  0.94461686  0.53451129     0.82500
C420        C  0.05583537  0.61082532  0.53532039     0.82800
O421        O  0.03670341  0.57026243  0.54454117    -0.82100
C422        C  0.32891934  0.66349531  0.38143406     0.85400
C423        C  0.27945186  0.63954115  0.39227119    -0.54900
C424        C  0.28167123  0.64184648  0.41449460     0.08300
C425        C  0.33289210  0.66783747  0.42396441     0.19200
C426        C  0.35503270  0.71459021  0.39082572    -0.55600
C427        C  0.35732676  0.71671496  0.41296648     0.08400
C428        C  0.35408386  0.63874223  0.39196936    -0.55100
C429        C  0.35624177  0.64110337  0.41415613     0.09000
H430        H  0.24537081  0.62216891  0.38370663     0.13500
H431        H  0.33465648  0.66965740  0.44202533    -0.00800
H432        H  0.37060874  0.74635102  0.38081072     0.13800
H433        H  0.36896091  0.62093780  0.38266368     0.13600
C434        C  0.17189010  0.83764271  0.61905252     0.85400
C435        C  0.14638466  0.78728436  0.60901629    -0.54900
C436        C  0.14456830  0.78588201  0.58671351     0.08300
C437        C  0.16897281  0.83628336  0.57664833     0.19200
C438        C  0.22144928  0.86260088  0.60846142    -0.55600
C439        C  0.22000658  0.86203302  0.58629584     0.08400
C440        C  0.14598904  0.86213832  0.60907574    -0.55100
C441        C  0.14410225  0.86134564  0.58684382     0.09000
H442        H  0.13052150  0.75581747  0.61913328     0.13500
H443        H  0.16917825  0.83773742  0.55873657    -0.00800
H444        H  0.25517613  0.87843703  0.61721270     0.13800
H445        H  0.12971474  0.87779341  0.61890771     0.13600
O446        O  0.17816908  0.74863979  0.19536130    -0.79600
C447        C  0.05929572  0.77704748  0.20147187     0.81400
O448        O  0.13700198  0.76247718  0.12182496    -0.80700
O449        O  0.11059909  0.88580368  0.15174531    -0.82200
O450        O  0.24980054  0.92259810  0.19759527    -0.82000
O451        O  0.24674190  0.81772767  0.19845174    -0.80600
Zn452      Zn  0.13407731  0.76378741  0.17718874     1.55700
O453        O  0.18228030  0.92494579  0.19577869    -0.82000
Cd454      Cd  0.23526458  0.86321172  0.17919327     1.59700
Cd455      Cd  0.16993555  0.83123466  0.13463030     1.59600
O456        O  0.28426472  0.88692494  0.15437096    -0.82000
O457        O  0.16839966  0.82968577  0.16725329    -1.92500
Cd458      Cd  0.13630303  0.86464157  0.17775066     1.59900
O459        O  0.23962525  0.86798903  0.12405103    -0.82000
O460        O  0.07885683  0.82120893  0.19693647    -0.80600
C461        C  0.11371329  0.72199481  0.13101409     0.81900
C462        C  0.22103084  0.77347450  0.20264079     0.81600
O463        O  0.07625108  0.75133429  0.19484225    -0.79600
C464        C  0.22552202  0.94238426  0.20227706     0.82400
O465        O  0.10947418  0.71832206  0.15160882    -0.79700
C466        C  0.28026235  0.88704895  0.13371708     0.82500
C467        C  0.11325576  0.88417209  0.13112807     0.82800
O468        O  0.13499283  0.86525464  0.12205919    -0.82100
C469        C  0.99791915  0.49554854  0.04780357     0.85400
C470        C  0.02327433  0.97047514  0.05763941    -0.54900
C471        C  0.02596319  0.97155699  0.07985398     0.08300
C472        C  0.00242966  0.49799807  0.09017857     0.19200
C473        C  0.44869572  0.97109407  0.05878235    -0.55600
C474        C  0.45072859  0.97267497  0.08107159     0.08400
C475        C  0.02414841  0.54613880  0.05754514    -0.55100
C476        C  0.02659372  0.54769876  0.07973146     0.09000
H477        H  0.03678275  0.95243954  0.04763006     0.13500
H478        H  0.00571908  0.50030647  0.10805858    -0.00800
H479        H  0.41510034  0.95292819  0.04999278     0.13800
H480        H  0.03839874  0.57789589  0.04757680     0.13600
C481        C  0.34029307  0.66720790  0.28557787     0.85400
C482        C  0.38982590  0.69365616  0.27481102    -0.54900
C483        C  0.38783100  0.69237122  0.25259041     0.08300
C484        C  0.33671381  0.66522565  0.24301700     0.19200
C485        C  0.31327877  0.69058076  0.27554340    -0.55600
C486        C  0.31110241  0.68928267  0.25334092     0.08400
C487        C  0.31605596  0.61668747  0.27558763    -0.55100
C488        C  0.31412805  0.61586451  0.25342558     0.09000
H489        H  0.42384768  0.71143617  0.28341329     0.13500
H490        H  0.33509929  0.66432697  0.22494728    -0.00800
H491        H  0.29692833  0.70644960  0.28519874     0.13800
H492        H  0.30126133  0.58438301  0.28521410     0.13600
C493        C  0.36819268  0.92005329  0.12950388    -0.14500
C494        C  0.32397005  0.91006000  0.12054755     0.07700
C495        C  0.32182877  0.92232749  0.09884575    -0.14500
C496        C  0.36291096  0.94350110  0.08626176    -0.14500
C497        C  0.40716111  0.95205375  0.09488659     0.07700
C498        C  0.40916977  0.94054984  0.11681833    -0.14500
H499        H  0.37101556  0.91117859  0.14624164     0.11700
H500        H  0.28838963  0.91595484  0.09160497     0.11700
H501        H  0.35958849  0.95341818  0.06981777     0.11700
H502        H  0.44189245  0.94635471  0.12435950     0.11700
C503        C  0.10787850  0.67729781  0.09674277    -0.14500
C504        C  0.09097194  0.67800288  0.11757260     0.07700
C505        C  0.05226175  0.63600717  0.12564125    -0.14500
C506        C  0.03103022  0.59412409  0.11321349    -0.14500
C507        C  0.04859278  0.59292699  0.09258147     0.07700
C508        C  0.08715332  0.63511699  0.08443789    -0.14500
H509        H  0.13781125  0.70911090  0.09015268     0.11700
H510        H  0.03798253  0.63565902  0.14150907     0.11700
H511        H  0.50040920  0.56292262  0.11975797     0.11700
H512        H  0.10194312  0.63544231  0.06872249     0.11700
C513        C  0.08328028  0.94009752  0.08368074    -0.14500
C514        C  0.04815237  0.94826560  0.09269013     0.07700
C515        C  0.03419084  0.93380007  0.11418866    -0.14500
C516        C  0.05522835  0.91290319  0.12649379    -0.14500
C517        C  0.09037804  0.90507922  0.11756420     0.07700
C518        C  0.10385314  0.91836343  0.09592885    -0.14500
H519        H  0.09573272  0.95123793  0.06732013     0.11700
H520        H  0.00659004  0.93789627  0.12168094     0.11700
H521        H  0.04360506  0.90250148  0.14304090     0.11700
H522        H  0.13108360  0.91299543  0.08863855     0.11700
C523        C  0.29847969  0.75732349  0.24451611    -0.14500
C524        C  0.28710888  0.71016934  0.24056840     0.07700
C525        C  0.25292506  0.68328475  0.22442300    -0.14500
C526        C  0.23001871  0.70320903  0.21253595    -0.14500
C527        C  0.24220001  0.75081917  0.21615695     0.07700
C528        C  0.27674328  0.77767830  0.23221940    -0.14500
H529        H  0.32495451  0.77870843  0.25683329     0.11700
H530        H  0.24367186  0.64680596  0.22116857     0.11700
H531        H  0.20380243  0.68189857  0.20012259     0.11700
H532        H  0.28680521  0.81445230  0.23532496     0.11700
C533        C  0.29650659  0.50793605  0.22222828    -0.14500
C534        C  0.24822321  0.98682495  0.21553970     0.07700
C535        C  0.22200762  0.00881321  0.22156762    -0.14500
C536        C  0.24352709  0.55076655  0.23400518    -0.14500
C537        C  0.29149437  0.57139877  0.24059894     0.07700
C538        C  0.31793331  0.54992054  0.23465197    -0.14500
H539        H  0.31779657  0.49210348  0.21782295     0.11700
H540        H  0.18484204  0.99361264  0.21669618     0.11700
H541        H  0.22276921  0.56712224  0.23852186     0.11700
H542        H  0.35514570  0.56573803  0.23958736     0.11700
C543        C  0.00938777  0.78190468  0.23089973    -0.14500
C544        C  0.01553331  0.75523538  0.21459651     0.07700
C545        C  0.47901864  0.70803828  0.21059410    -0.14500
C546        C  0.43689566  0.68803379  0.22258062    -0.14500
C547        C  0.43128948  0.71439291  0.23917177     0.07700
C548        C  0.46792279  0.76142128  0.24330466    -0.14500
H549        H  0.03700707  0.81838767  0.23426229     0.11700
H550        H  0.48276630  0.68694908  0.19796877     0.11700
H551        H  0.40910471  0.65162603  0.21921956     0.11700
H552        H  0.46418521  0.78241047  0.25598816     0.11700
C553        C  0.37555524  0.68580471  0.34662762    -0.14500
C554        C  0.33060664  0.66304063  0.35659168     0.07700
C555        C  0.28953945  0.64117226  0.34304636    -0.14500
C556        C  0.29356828  0.64277493  0.32040692    -0.14500
C557        C  0.33851669  0.66621443  0.31043825     0.07700
C558        C  0.37958284  0.68754069  0.32399860    -0.14500
H559        H  0.40795914  0.70273410  0.35651731     0.11700
H560        H  0.25397510  0.62264919  0.34949421     0.11700
H561        H  0.26117805  0.62567340  0.31051399     0.11700
H562        H  0.41516955  0.70578784  0.31758577     0.11700
C563        C  0.19169337  0.62466057  0.45743688    -0.14500
C564        C  0.15502617  0.57761402  0.45319203     0.07700
C565        C  0.16073616  0.55154806  0.43647916    -0.14500
C566        C  0.20181765  0.57261226  0.42382058    -0.14500
C567        C  0.23845768  0.61959807  0.42806852     0.07700
C568        C  0.23345588  0.64524708  0.44518016    -0.14500
H569        H  0.18818407  0.64531591  0.47036560     0.11700
H570        H  0.13294775  0.51527409  0.43290673     0.11700
H571        H  0.20521623  0.55206439  0.41080863     0.11700
H572        H  0.26132479  0.68151988  0.44870130     0.11700
C573        C  0.44780674  0.82190509  0.44655790    -0.14500
C574        C  0.42368002  0.84732795  0.44981566     0.07700
C575        C  0.37798482  0.82980761  0.44028039    -0.14500
C576        C  0.35673773  0.78760840  0.42802447    -0.14500
C577        C  0.38059569  0.76205703  0.42521644     0.07700
C578        C  0.42630186  0.77949293  0.43441625    -0.14500
H579        H  0.48298673  0.83438186  0.45365822     0.11700
H580        H  0.35847543  0.84855169  0.44239164     0.11700
H581        H  0.32138916  0.77449004  0.42097503     0.11700
H582        H  0.44533616  0.76033321  0.43216581     0.11700
C583        C  0.38488763  0.54959861  0.43672996    -0.14500
C584        C  0.42092409  0.57678262  0.45215413     0.07700
C585        C  0.43475689  0.62494113  0.45532085    -0.14500
C586        C  0.41280801  0.64552220  0.44331524    -0.14500
C587        C  0.37794909  0.61875233  0.42744534     0.07700
C588        C  0.36407886  0.57064638  0.42423285    -0.14500
H589        H  0.37351039  0.51236027  0.43406131     0.11700
H590        H  0.46207049  0.64645840  0.46730653     0.11700
H591        H  0.42368888  0.68255077  0.44612376     0.11700
H592        H  0.33680415  0.54929925  0.41219840     0.11700
C593        C  0.30530815  0.88313213  0.54028192    -0.14500
C594        C  0.34757885  0.92317047  0.54788763     0.07700
C595        C  0.34766898  0.94323208  0.56809826    -0.14500
C596        C  0.30613208  0.92390786  0.58039368    -0.14500
C597        C  0.26386695  0.88347282  0.57293329     0.07700
C598        C  0.26398925  0.86323720  0.55276174    -0.14500
H599        H  0.30441258  0.86678701  0.52479907     0.11700
H600        H  0.37961235  0.97450605  0.57418879     0.11700
H601        H  0.30708089  0.94104622  0.59563097     0.11700
H602        H  0.23247394  0.83151792  0.54672778     0.11700
C603        C  0.08703798  0.65396617  0.57097724    -0.14500
C604        C  0.07780409  0.65491768  0.54868222     0.07700
C605        C  0.09034658  0.69878531  0.53901740    -0.14500
C606        C  0.11148097  0.74074782  0.55130629    -0.14500
C607        C  0.12133535  0.74041680  0.57366631     0.07700
C608        C  0.10886813  0.69614922  0.58327377    -0.14500
H609        H  0.07811288  0.62069965  0.57887558     0.11700
H610        H  0.08348711  0.70077311  0.52186339     0.11700
H611        H  0.11943765  0.77298186  0.54292031     0.11700
H612        H  0.11639915  0.69353027  0.60021724     0.11700
C613        C  0.07857765  0.88364011  0.54064403    -0.14500
C614        C  0.07752841  0.92391199  0.54817361     0.07700
C615        C  0.09762559  0.94308064  0.56868874    -0.14500
C616        C  0.11912072  0.92282562  0.58128263    -0.14500
C617        C  0.12035054  0.88252050  0.57375291     0.07700
C618        C  0.09929784  0.86289722  0.55339512    -0.14500
H619        H  0.06270691  0.86773676  0.52501831     0.11700
H620        H  0.09755629  0.97435068  0.57480924     0.11700
H621        H  0.13552537  0.93933467  0.59672603     0.11700
H622        H  0.09823853  0.83116725  0.54732328     0.11700
C623        C  0.04387302  0.51774585  0.01291222    -0.14500
C624        C  0.99909007  0.49623516  0.02298029     0.07700
C625        C  0.45780815  0.97696792  0.00956688    -0.14500
C626        C  0.46151948  0.97906285  0.98694864    -0.14500
C627        C  0.00630546  0.50028796  0.97688283     0.07700
C628        C  0.04758013  0.51973886  0.99030068    -0.14500
H629        H  0.07640947  0.53316120  0.02270779     0.11700
H630        H  0.42232547  0.96036108  0.01603702     0.11700
H631        H  0.42899358  0.96383213  0.97715171     0.11700
H632        H  0.08307801  0.53662182  0.98384727     0.11700
C633        C  0.20823426  0.85461958  0.67989200    -0.14500
C634        C  0.16350840  0.83184956  0.68996421     0.07700
C635        C  0.12212622  0.81115513  0.67659865    -0.14500
C636        C  0.12570790  0.81362848  0.65397003    -0.14500
C637        C  0.17048136  0.83660313  0.64388326     0.07700
C638        C  0.21181901  0.85713637  0.65730557    -0.14500
H639        H  0.24082054  0.87076567  0.68966634     0.11700
H640        H  0.08668163  0.79277989  0.68314409     0.11700
H641        H  0.09313802  0.79729663  0.64419042     0.11700
H642        H  0.24738485  0.87537230  0.65091315     0.11700
C643        C  0.42472299  0.81832487  0.90332687    -0.14500
C644        C  0.40747081  0.81824261  0.88224663     0.07700
C645        C  0.41124821  0.86045220  0.87411887    -0.14500
C646        C  0.43254570  0.90214426  0.88668088    -0.14500
C647        C  0.45164212  0.90292690  0.90747118     0.07700
C648        C  0.44698416  0.86030605  0.91573124    -0.14500
H649        H  0.42239331  0.78628524  0.90996184     0.11700
H650        H  0.39749364  0.86118098  0.85804295     0.11700
H651        H  0.43370693  0.93358551  0.88002524     0.11700
H652        H  0.96163456  0.85947456  0.93154318     0.11700
C653        C  0.18243176  0.56732998  0.90066124    -0.14500
C654        C  0.18185523  0.58508999  0.87989905     0.07700
C655        C  0.13912127  0.58078858  0.87178303    -0.14500
C656        C  0.09802361  0.56018534  0.88439225    -0.14500
C657        C  0.09838165  0.54262305  0.90526926     0.07700
C658        C  0.14105771  0.54587269  0.91310627    -0.14500
H659        H  0.21478679  0.56959129  0.90719661     0.11700
H660        H  0.13776547  0.59445716  0.85587094     0.11700
H661        H  0.06650816  0.55926955  0.87784266     0.11700
H662        H  0.14265504  0.53166219  0.92882376     0.11700
C663        C  0.44656869  0.57877232  0.87231537    -0.14500
C664        C  0.41488052  0.59077644  0.88189585     0.07700
C665        C  0.40483393  0.58139640  0.90407090    -0.14500
C666        C  0.42577550  0.56004668  0.91632062    -0.14500
C667        C  0.45797388  0.54826063  0.90677909     0.07700
C668        C  0.46789934  0.55805944  0.88456719    -0.14500
H669        H  0.45527446  0.58570437  0.85526661     0.11700
H670        H  0.38012753  0.58977573  0.91188200     0.11700
H671        H  0.41581982  0.55220080  0.93316064     0.11700
H672        H  0.49242382  0.55037865  0.87635295     0.11700
C673        C  0.20907086  0.71337886  0.77523051    -0.14500
C674        C  0.25612684  0.74127035  0.78337556     0.07700
C675        C  0.28128219  0.79044181  0.77884894    -0.14500
C676        C  0.25970504  0.81127943  0.76676831    -0.14500
C677        C  0.21279677  0.78337765  0.75888622     0.07700
C678        C  0.18763550  0.73431699  0.76303146    -0.14500
H679        H  0.18874463  0.67546191  0.77836733     0.11700
H680        H  0.31754274  0.81301020  0.78483301     0.11700
H681        H  0.27963988  0.84916232  0.76352285     0.11700
H682        H  0.15129978  0.71238840  0.75699173     0.11700
C683        C  0.02419886  0.73134895  0.78935723    -0.14500
C684        C  0.48901360  0.74407727  0.78594422     0.07700
C685        C  0.49632146  0.77850117  0.77027516    -0.14500
C686        C  0.03770665  0.79910406  0.75787686    -0.14500
C687        C  0.07291427  0.78654993  0.76140462     0.07700
C688        C  0.06624862  0.75302106  0.77737903    -0.14500
H689        H  0.01939822  0.70508546  0.80146834     0.11700
H690        H  0.46963154  0.78876794  0.76734984     0.11700
H691        H  0.04244315  0.82507631  0.74561759     0.11700
H692        H  0.09303588  0.74283062  0.78019725     0.11700
C693        C  0.27183131  0.97730486  0.78743677    -0.14500
C694        C  0.25746330  0.51134159  0.78460456     0.07700
C695        C  0.22113923  0.50233273  0.76931831    -0.14500
C696        C  0.20014009  0.96037560  0.75685800    -0.14500
C697        C  0.21416845  0.92622551  0.75994747     0.07700
C698        C  0.24977378  0.93473557  0.77545797    -0.14500
H699        H  0.29953760  0.98325180  0.79921894     0.11700
H700        H  0.20948077  0.52801137  0.76680788     0.11700
H701        H  0.17242431  0.95418776  0.74503173     0.11700
H702        H  0.26094794  0.90874851  0.77808432     0.11700
O703        O  0.75421016  0.17629794  0.80270096    -0.79600
C704        C  0.78010360  0.05568164  0.79773086     0.81400
O705        O  0.76622022  0.12772715  0.87661588    -0.80700
O706        O  0.89379874  0.11011596  0.84791179    -0.82200
O707        O  0.92601821  0.24650071  0.80394511    -0.82000
O708        O  0.82233100  0.24566848  0.80278813    -0.80600
Zn709      Zn  0.76822076  0.13243927  0.82116325     1.55700
O710        O  0.92741085  0.17838877  0.80445778    -0.82000
Cd711      Cd  0.86688937  0.23220354  0.82204321     1.59700
Cd712      Cd  0.83523211  0.16486255  0.86528003     1.59600
O713        O  0.88852701  0.27949092  0.84790292    -0.82000
O714        O  0.83367337  0.16506238  0.83263150    -1.92500
Cd715      Cd  0.86846636  0.13265382  0.82237030     1.59900
O716        O  0.86837557  0.23404482  0.87753812    -0.82000
O717        O  0.82339569  0.07289405  0.80407549    -0.80600
C718        C  0.72569080  0.10837369  0.86684461     0.81900
C719        C  0.77871965  0.21979373  0.79691704     0.81600
O720        O  0.75577445  0.07534319  0.80265229    -0.79600
C721        C  0.94503410  0.22175296  0.79878156     0.82400
O722        O  0.72195514  0.10861301  0.84615838    -0.79700
C723        C  0.88686251  0.27483877  0.86851499     0.82500
C724        C  0.89201850  0.11206511  0.86852873     0.82800
O725        O  0.87109602  0.13163643  0.87774134    -0.82100
C726        C  0.66245192  0.33075220  0.71474523     0.85400
C727        C  0.68895682  0.38110418  0.72486142    -0.54900
C728        C  0.69153527  0.38162808  0.74703622     0.08300
C729        C  0.66712112  0.33175322  0.75724232     0.19200
C730        C  0.68757560  0.30498916  0.72432280    -0.55600
C731        C  0.69005120  0.30570476  0.74646212     0.08400
C732        C  0.61324743  0.30677589  0.72570798    -0.55100
C733        C  0.61588816  0.30732415  0.74788172     0.09000
H734        H  0.70430842  0.41352784  0.71530061     0.13500
H735        H  0.66905330  0.33217944  0.77530713    -0.00800
H736        H  0.70233508  0.28788634  0.71443736     0.13800
H737        H  0.57900204  0.29058659  0.71731057     0.13600
C738        C  0.50757676  0.00064399  0.95205336     0.85400
C739        C  0.98369277  0.02704963  0.94202724    -0.54900
C740        C  0.98079683  0.02562585  0.91976155     0.08300
C741        C  0.50329359  0.99793033  0.90967092     0.19200
C742        C  0.97978111  0.45004294  0.94240210    -0.55600
C743        C  0.97716324  0.44829077  0.92020931     0.08400
C744        C  0.55680191  0.02339207  0.94117548    -0.55100
C745        C  0.55477758  0.02195440  0.91895142     0.09000
H746        H  0.97085807  0.04565429  0.95203941     0.13500
H747        H  0.50189297  0.99572540  0.89177069    -0.00800
H748        H  0.96276048  0.41846843  0.95248358     0.13800
H749        H  0.59060570  0.04045369  0.94986769     0.13600
O750        O  0.98870160  0.40971310  0.46994063    -0.79600
C751        C  0.61081157  0.05604363  0.46598126     0.81400
O752        O  0.53675376  0.46725872  0.54417015    -0.80700
O753        O  0.55667855  0.11469590  0.51471115    -0.82200
O754        O  0.91872458  0.01119245  0.47028501    -0.82000
O755        O  0.91942368  0.40859913  0.46905185    -0.80600
Zn756      Zn  0.53314439  0.46691318  0.48878588     1.55700
O757        O  0.98747957  0.08053124  0.47076613    -0.82000
Cd758      Cd  0.93330384  0.46611448  0.48846756     1.57000
Cd759      Cd  0.50143454  0.50108488  0.53221411     1.59600
O760        O  0.88602741  0.44056129  0.51389350    -0.82000
O761        O  0.50085076  0.49977974  0.49958776    -1.92500
Cd762      Cd  0.53352522  0.06708069  0.48917767     1.59900
O763        O  0.93201365  0.46693306  0.54384370    -0.82000
O764        O  0.59366743  0.08211151  0.47173527    -0.80600
C765        C  0.55548863  0.44575358  0.53473333     0.81900
C766        C  0.94520262  0.39098290  0.46358055     0.81600
O767        O  0.59087866  0.01199947  0.47097490    -0.79600
C768        C  0.94365069  0.05495476  0.46505299     0.82400
O769        O  0.55579942  0.44268684  0.51405105    -0.79700
C770        C  0.89095683  0.44462191  0.53451396     0.82500
C771        C  0.55582885  0.11084293  0.53532019     0.82800
O772        O  0.53668952  0.07027933  0.54454082    -0.82100
C773        C  0.82890926  0.16349754  0.38142944     0.85400
C774        C  0.77944297  0.13953758  0.39226774    -0.54900
C775        C  0.78166559  0.14184253  0.41449136     0.08300
C776        C  0.83288763  0.16783785  0.42395965     0.19200
C777        C  0.85501756  0.21459178  0.39082145    -0.55600
C778        C  0.85731425  0.21671531  0.41296199     0.08400
C779        C  0.85408046  0.13874907  0.39196297    -0.55100
C780        C  0.85624141  0.14110936  0.41414965     0.09000
H781        H  0.74536138  0.12216463  0.38370354     0.13500
H782        H  0.83465524  0.16965758  0.44202056    -0.00800
H783        H  0.87058855  0.24635312  0.38080687     0.13800
H784        H  0.86895933  0.12094784  0.38265615     0.13600
C785        C  0.67190375  0.33765880  0.61905695     0.85400
C786        C  0.64640188  0.28730004  0.60902026    -0.54900
C787        C  0.64458474  0.28589786  0.58671723     0.08300
C788        C  0.66898653  0.33629939  0.57665295     0.19200
C789        C  0.72146323  0.36262211  0.60846631    -0.55600
C790        C  0.72001984  0.36205301  0.58630086     0.08400
C791        C  0.64599956  0.36215152  0.60908008    -0.55100
C792        C  0.64411143  0.36135557  0.58684844     0.09000
H793        H  0.63054038  0.25583350  0.61913738     0.13500
H794        H  0.66919177  0.33775732  0.55874121    -0.00800
H795        H  0.75519082  0.37846596  0.61721753     0.13800
H796        H  0.62972278  0.37780567  0.61891105     0.13600
O797        O  0.67818279  0.24864471  0.19535503    -0.79600
C798        C  0.55931290  0.27705457  0.20147351     0.81400
O799        O  0.63702578  0.26249076  0.12182002    -0.80700
O800        O  0.61061510  0.38580948  0.15174661    -0.82200
O801        O  0.74981697  0.42260431  0.19759839    -0.82000
O802        O  0.74675495  0.31773287  0.19844899    -0.80600
Zn803      Zn  0.63409083  0.26379487  0.17718518     1.55700
O804        O  0.68229804  0.42495341  0.19577753    -0.82000
Cd805      Cd  0.73527914  0.36322062  0.17919432     1.59700
Cd806      Cd  0.66995323  0.33124537  0.13462981     1.59600
O807        O  0.78427971  0.38693972  0.15437349    -0.82000
O808        O  0.66841566  0.32969406  0.16725275    -1.92500
Cd809      Cd  0.63631975  0.36464818  0.17775158     1.59900
O810        O  0.73964166  0.36800634  0.12405310    -0.82000
O811        O  0.57887667  0.32121721  0.19693997    -0.80600
C812        C  0.61373277  0.22200788  0.13100832     0.81900
C813        C  0.72104392  0.27347850  0.20263526     0.81600
O814        O  0.57626490  0.25134044  0.19484072    -0.79600
C815        C  0.72553819  0.44239122  0.20227785     0.82400
O816        O  0.60948971  0.21833480  0.15160294    -0.79700
C817        C  0.78027761  0.38706652  0.13371981     0.82500
C818        C  0.61327329  0.38418097  0.13112933     0.82800
O819        O  0.63501164  0.36526583  0.12205974    -0.82100
C820        C  0.49791559  0.99555092  0.04780119     0.85400
C821        C  0.52327807  0.47047209  0.05764147    -0.54900
C822        C  0.52596820  0.47155431  0.07985615     0.08300
C823        C  0.50242604  0.99800260  0.09017626     0.19200
C824        C  0.94869945  0.47108981  0.05878452    -0.55600
C825        C  0.95073358  0.47267091  0.08107352     0.08400
C826        C  0.52414501  0.04614185  0.05754212    -0.55100
C827        C  0.52659242  0.04770384  0.07972842     0.09000
H828        H  0.53678659  0.45243707  0.04763188     0.13500
H829        H  0.50571705  0.00031091  0.10805617    -0.00800
H830        H  0.91510294  0.45292061  0.04999546     0.13800
H831        H  0.53839587  0.07789810  0.04757320     0.13600
C832        C  0.84029302  0.16721087  0.28557382     0.85400
C833        C  0.88982816  0.19366106  0.27480874    -0.54900
C834        C  0.88783804  0.19237451  0.25258808     0.08300
C835        C  0.83672209  0.16522518  0.24301286     0.19200
C836        C  0.81327822  0.19057985  0.27553669    -0.55600
C837        C  0.81110706  0.18928086  0.25333425     0.08400
C838        C  0.81606014  0.11668960  0.27558450    -0.55100
C839        C  0.81413512  0.11586434  0.25342233     0.09000
H840        H  0.92384836  0.21144335  0.28341215     0.13500
H841        H  0.83511074  0.16432538  0.22494310    -0.00800
H842        H  0.79692473  0.20644821  0.28519027     0.13800
H843        H  0.80126259  0.08438602  0.28521168     0.13600
C844        C  0.86820174  0.42005040  0.12950480    -0.14500
C845        C  0.82398395  0.41007765  0.12055088     0.07700
C846        C  0.82184478  0.42235863  0.09885122    -0.14500
C847        C  0.86292499  0.44352447  0.08626633    -0.14500
C848        C  0.90716915  0.45205537  0.09488861     0.07700
C849        C  0.90917592  0.44053850  0.11681820    -0.14500
H850        H  0.87102172  0.41116353  0.14624080     0.11700
H851        H  0.78840875  0.41600109  0.09161284     0.11700
H852        H  0.85960713  0.45345260  0.06982375     0.11700
H853        H  0.94189526  0.44632573  0.12435656     0.11700
C854        C  0.60788633  0.17730769  0.09673505    -0.14500
C855        C  0.59098838  0.17801513  0.11756672     0.07700
C856        C  0.55228180  0.13601968  0.12563777    -0.14500
C857        C  0.53104551  0.09413501  0.11321116    -0.14500
C858        C  0.54859877  0.09293485  0.09257735     0.07700
C859        C  0.58715610  0.13512474  0.08443106    -0.14500
H860        H  0.63781582  0.20912035  0.09014276     0.11700
H861        H  0.53800859  0.13567266  0.14150698     0.11700
H862        H  0.00042773  0.06293438  0.11975837     0.11700
H863        H  0.60193951  0.13544862  0.06871415     0.11700
C864        C  0.58328659  0.44009616  0.08368167    -0.14500
C865        C  0.54816160  0.44826711  0.09269240     0.07700
C866        C  0.53420879  0.43380978  0.11419251    -0.14500
C867        C  0.55524949  0.41291629  0.12649742    -0.14500
C868        C  0.59039485  0.40508794  0.11756618     0.07700
C869        C  0.60386316  0.41836574  0.09592970    -0.14500
H870        H  0.59573362  0.45123115  0.06732000     0.11700
H871        H  0.50661170  0.43790970  0.12168679     0.11700
H872        H  0.54363189  0.40252017  0.14304557     0.11700
H873        H  0.63109061  0.41299457  0.08863812     0.11700
C874        C  0.79848502  0.25732103  0.24451074    -0.14500
C875        C  0.78711851  0.21016930  0.24056005     0.07700
C876        C  0.75294196  0.18328874  0.22441147    -0.14500
C877        C  0.73003662  0.20321418  0.21252480    -0.14500
C878        C  0.74221240  0.25082142  0.21614967     0.07700
C879        C  0.77674973  0.27767700  0.23221465    -0.14500
H880        H  0.82495473  0.27870287  0.25683030     0.11700
H881        H  0.74369294  0.14681212  0.22115452     0.11700
H882        H  0.70382523  0.18190720  0.20010909     0.11700
H883        H  0.78680730  0.31444899  0.23532293     0.11700
C884        C  0.79648737  0.00791154  0.22223685    -0.14500
C885        C  0.74823554  0.48683152  0.21554019     0.07700
C886        C  0.72200715  0.50879990  0.22157783    -0.14500
C887        C  0.74353342  0.05078124  0.23399442    -0.14500
C888        C  0.79149440  0.07139623  0.24059667     0.07700
C889        C  0.81791992  0.04989735  0.23465973    -0.14500
H890        H  0.81776782  0.99206363  0.21783937     0.11700
H891        H  0.68483563  0.49358440  0.21671373     0.11700
H892        H  0.72278485  0.06715137  0.23850403     0.11700
H893        H  0.85512702  0.06570050  0.23960182     0.11700
C894        C  0.50940012  0.28191116  0.23090049    -0.14500
C895        C  0.51554979  0.25524165  0.21459855     0.07700
C896        C  0.97903658  0.20804371  0.21059666    -0.14500
C897        C  0.93691133  0.18803881  0.22258170    -0.14500
C898        C  0.93130030  0.21439804  0.23917119     0.07700
C899        C  0.96793259  0.26142726  0.24330420    -0.14500
H900        H  0.53701773  0.31839488  0.23426285     0.11700
H901        H  0.98278672  0.18695392  0.19797245     0.11700
H902        H  0.90912194  0.15163027  0.21922076     0.11700
H903        H  0.96419199  0.28241691  0.25598653     0.11700
C904        C  0.87554593  0.18581908  0.34662402    -0.14500
C905        C  0.83059662  0.16304659  0.35658721     0.07700
C906        C  0.78953062  0.14117374  0.34304135    -0.14500
C907        C  0.79356196  0.14277668  0.32040184    -0.14500
C908        C  0.83851177  0.16622064  0.31043413     0.07700
C909        C  0.87957598  0.18755550  0.32399536    -0.14500
H910        H  0.90794891  0.20275377  0.35651425     0.11700
H911        H  0.75396609  0.12264591  0.34948913     0.11700
H912        H  0.76117301  0.12567049  0.31050815     0.11700
H913        H  0.91516347  0.20580939  0.31758359     0.11700
C914        C  0.69170259  0.12466239  0.45744021    -0.14500
C915        C  0.65502802  0.07762062  0.45319306     0.07700
C916        C  0.66072891  0.05155444  0.43647745    -0.14500
C917        C  0.70180842  0.07261484  0.42381772    -0.14500
C918        C  0.73845506  0.11959676  0.42806711     0.07700
C919        C  0.73346291  0.14524495  0.44518210    -0.14500
H920        H  0.68820027  0.14531695  0.47037139     0.11700
H921        H  0.63293472  0.01528364  0.43290369     0.11700
H922        H  0.70519987  0.05206720  0.41080354     0.11700
H923        H  0.76133728  0.18151471  0.44870465     0.11700
C924        C  0.94779754  0.32190912  0.44654811    -0.14500
C925        C  0.92366554  0.34732456  0.44981178     0.07700
C926        C  0.87796474  0.32979883  0.44028174    -0.14500
C927        C  0.85671726  0.28760028  0.42802538    -0.14500
C928        C  0.88058118  0.26205628  0.42521191     0.07700
C929        C  0.92629280  0.27949840  0.43440603    -0.14500
H930        H  0.98298196  0.33439048  0.45364426     0.11700
H931        H  0.85845141  0.34853760  0.44239766     0.11700
H932        H  0.82136437  0.27447675  0.42097997     0.11700
H933        H  0.94533123  0.26034419  0.43215100     0.11700
C934        C  0.88488322  0.04960383  0.43672728    -0.14500
C935        C  0.92093034  0.07679193  0.45214669     0.07700
C936        C  0.93477481  0.12495526  0.45530730    -0.14500
C937        C  0.91282555  0.14553608  0.44330158    -0.14500
C938        C  0.87795376  0.11876077  0.42743740     0.07700
C939        C  0.86407356  0.07065093  0.42422996    -0.14500
H940        H  0.87349696  0.01236218  0.43406289     0.11700
H941        H  0.96209726  0.14647671  0.46728885     0.11700
H942        H  0.92371479  0.18256795  0.44610599     0.11700
H943        H  0.83678950  0.04930004  0.41219973     0.11700
C944        C  0.80531843  0.38313637  0.54028969    -0.14500
C945        C  0.84758604  0.42318356  0.54789105     0.07700
C946        C  0.84767532  0.44325921  0.56809774    -0.14500
C947        C  0.80613981  0.42393737  0.58039417    -0.14500
C948        C  0.76387833  0.38349277  0.57293802     0.07700
C949        C  0.76400152  0.36324504  0.55277022    -0.14500
H950        H  0.80442422  0.36678108  0.52480993     0.11700
H951        H  0.87961683  0.47454056  0.57418438     0.11700
H952        H  0.80708634  0.44108338  0.59562883     0.11700
H953        H  0.73248828  0.33151857  0.54674012     0.11700
C954        C  0.58702007  0.15397876  0.57097910    -0.14500
C955        C  0.57779982  0.15493508  0.54868281     0.07700
C956        C  0.59036362  0.19880742  0.53901752    -0.14500
C957        C  0.61150651  0.24076954  0.55130698    -0.14500
C958        C  0.62134641  0.24043344  0.57366866     0.07700
C959        C  0.60885700  0.19616071  0.58327649    -0.14500
H960        H  0.57807910  0.12070862  0.57887802     0.11700
H961        H  0.58351647  0.20079976  0.52186242     0.11700
H962        H  0.61948213  0.27300693  0.54291935     0.11700
H963        H  0.61637478  0.19353590  0.60022111     0.11700
C964        C  0.57853868  0.38359556  0.54065390    -0.14500
C965        C  0.57751738  0.42388900  0.54817282     0.07700
C966        C  0.59764501  0.44308724  0.56868028    -0.14500
C967        C  0.61914457  0.42284089  0.58127677    -0.14500
C968        C  0.62034971  0.38251708  0.57375695     0.07700
C969        C  0.59926490  0.36286240  0.55340781    -0.14500
H970        H  0.56264324  0.36766983  0.52503467     0.11700
H971        H  0.59759673  0.47437394  0.57479217     0.11700
H972        H  0.63557300  0.43937057  0.59671388     0.11700
H973        H  0.59818750  0.33111693  0.54734550     0.11700
C974        C  0.54387163  0.01776479  0.01291006    -0.14500
C975        C  0.49908753  0.99623422  0.02297777     0.07700
C976        C  0.95781108  0.47699564  0.00956992    -0.14500
C977        C  0.96152133  0.47909094  0.98695162    -0.14500
C978        C  0.50630495  0.00028260  0.97688029     0.07700
C979        C  0.54757989  0.01975766  0.99029849    -0.14500
H980        H  0.57640827  0.03319840  0.02270599     0.11700
H981        H  0.92232982  0.46041261  0.01604076     0.11700
H982        H  0.92899583  0.46387920  0.97715496     0.11700
H983        H  0.58307865  0.03666260  0.98384530     0.11700
C984        C  0.70824165  0.35462195  0.67989672    -0.14500
C985        C  0.66351432  0.33186207  0.68996778     0.07700
C986        C  0.62213358  0.31118035  0.67660150    -0.14500
C987        C  0.62571813  0.31365317  0.65397311    -0.14500
C988        C  0.67049294  0.33661755  0.64388743     0.07700
C989        C  0.71182928  0.35713808  0.65731047    -0.14500
H990        H  0.74082684  0.37075830  0.68967186     0.11700
H991        H  0.58668806  0.29281640  0.68314624     0.11700
H992        H  0.59314928  0.29733019  0.64419275     0.11700
H993        H  0.74739592  0.37536075  0.65091864     0.11700
C994        C  0.92473101  0.31833117  0.90332678    -0.14500
C995        C  0.90746356  0.31824657  0.88224951     0.07700
C996        C  0.91122509  0.36045230  0.87412579    -0.14500
C997        C  0.93252337  0.40214359  0.88668848    -0.14500
C998        C  0.95163441  0.40292832  0.90747539     0.07700
C999        C  0.94699159  0.36031144  0.91573191    -0.14500
H1000       H  0.92241411  0.28629455  0.90995838     0.11700
H1001       H  0.89745873  0.36117875  0.85805233     0.11700
H1002       H  0.93367558  0.43358337  0.88003628     0.11700
H1003       H  0.46165376  0.35948383  0.93154141     0.11700
C1004       C  0.68243397  0.06735476  0.90065661    -0.14500
C1005       C  0.68185257  0.08510557  0.87989283     0.07700
C1006       C  0.63911576  0.08079852  0.87177705    -0.14500
C1007       C  0.59801920  0.06019571  0.88438779    -0.14500
C1008       C  0.59838200  0.04263820  0.90526572     0.07700
C1009       C  0.64106202  0.04589723  0.91310272    -0.14500
H1010       H  0.71479124  0.06962163  0.90719231     0.11700
H1011       H  0.63775654  0.09446131  0.85586398     0.11700
H1012       H  0.56650075  0.05927530  0.87783870     0.11700
H1013       H  0.64266418  0.03169198  0.92882085     0.11700
C1014       C  0.94653268  0.07873890  0.87231240    -0.14500
C1015       C  0.91487387  0.09077698  0.88189748     0.07700
C1016       C  0.90485767  0.08143075  0.90407645    -0.14500
C1017       C  0.92579836  0.06007890  0.91632531    -0.14500
C1018       C  0.95796723  0.04825770  0.90677898     0.07700
C1019       C  0.96786429  0.05802570  0.88456310    -0.14500
H1020       H  0.95521555  0.08564461  0.85526045     0.11700
H1021       H  0.88017561  0.08983835  0.91189166     0.11700
H1022       H  0.91586421  0.05226049  0.93316871     0.11700
H1023       H  0.99236712  0.05032155  0.87634415     0.11700
C1024       C  0.70911460  0.21336580  0.77519044    -0.14500
C1025       C  0.75613818  0.24127402  0.78337038     0.07700
C1026       C  0.78125983  0.29046232  0.77888036    -0.14500
C1027       C  0.75967913  0.31129980  0.76680262    -0.14500
C1028       C  0.71280217  0.28338160  0.75888598     0.07700
C1029       C  0.68767712  0.23430395  0.76299284    -0.14500
H1030       H  0.68881605  0.17543526  0.77829811     0.11700
H1031       H  0.81749504  0.31304348  0.78489191     0.11700
H1032       H  0.77958945  0.34919480  0.76358438     0.11700
H1033       H  0.65136640  0.21236206  0.75692552     0.11700
C1034       C  0.52423262  0.23139359  0.78938024    -0.14500
C1035       C  0.98902413  0.24408440  0.78595234     0.07700
C1036       C  0.99630392  0.27846818  0.77026664    -0.14500
C1037       C  0.53768540  0.29906831  0.75786620    -0.14500
C1038       C  0.57291757  0.28655305  0.76140833     0.07700
C1039       C  0.56627906  0.25306455  0.77739959    -0.14500
H1040       H  0.51945196  0.20516065  0.80150438     0.11700
H1041       H  0.96959442  0.28870406  0.76732995     0.11700
H1042       H  0.54240015  0.32500988  0.74559450     0.11700
H1043       H  0.59308484  0.24290341  0.78022920     0.11700
C1044       C  0.77179785  0.47729168  0.78745495    -0.14500
C1045       C  0.75747691  0.01134309  0.78459725     0.07700
C1046       C  0.72113081  0.00232085  0.76932122    -0.14500
C1047       C  0.70015338  0.46038919  0.75685415    -0.14500
C1048       C  0.71416410  0.42622802  0.75995321     0.07700
C1049       C  0.74974405  0.43472420  0.77547551    -0.14500
H1050       H  0.79948634  0.48322883  0.79924568     0.11700
H1051       H  0.70945689  0.02798962  0.76681848     0.11700
H1052       H  0.67245568  0.45421181  0.74501941     0.11700
H1053       H  0.76090251  0.40872844  0.77811079     0.11700
O1054       O  0.75419802  0.67629827  0.80271101    -0.79600
C1055       C  0.78009129  0.55568033  0.79773661     0.81400
O1056       O  0.76622379  0.62771651  0.87662222    -0.80700
O1057       O  0.89380963  0.61012001  0.84790964    -0.82200
O1058       O  0.92601081  0.74649587  0.80394066    -0.82000
O1059       O  0.82232447  0.74566245  0.80278865    -0.80600
Zn1060     Zn  0.76821553  0.63243866  0.82116911     1.55700
O1061       O  0.92739719  0.67838129  0.80444962    -0.82000
Cd1062     Cd  0.86688497  0.73219682  0.82204191     1.59700
Cd1063     Cd  0.83523252  0.66485557  0.86528165     1.59600
O1064       O  0.88852785  0.77948252  0.84790144    -0.82000
O1065       O  0.83367061  0.66505825  0.83263318    -1.92500
Cd1066     Cd  0.86846357  0.63265179  0.82237003     1.59900
O1067       O  0.86838021  0.73403942  0.87753786    -0.82000
O1068       O  0.82338304  0.57288948  0.80408086    -0.80600
C1069       C  0.72569384  0.60836240  0.86685154     0.81900
C1070       C  0.77870932  0.71979102  0.79692277     0.81600
O1071       O  0.75576466  0.57534500  0.80265688    -0.79600
C1072       C  0.94502259  0.72174618  0.79877392     0.82400
O1073       O  0.72195707  0.60860639  0.84616564    -0.79700
C1074       C  0.88686679  0.77483241  0.86851361     0.82500
C1075       C  0.89202478  0.61206330  0.86852668     0.82800
O1076       O  0.87109634  0.63162780  0.87773977    -0.82100
C1077       C  0.66244876  0.83074401  0.71474204     0.85400
C1078       C  0.68895286  0.88109733  0.72485714    -0.54900
C1079       C  0.69153271  0.88162360  0.74703198     0.08300
C1080       C  0.66711763  0.83174976  0.75723939     0.19200
C1081       C  0.68757527  0.80498461  0.72432101    -0.55600
C1082       C  0.69004895  0.80570138  0.74646053     0.08400
C1083       C  0.61324421  0.80676850  0.72570500    -0.55100
C1084       C  0.61588517  0.80731951  0.74787857     0.09000
H1085       H  0.70430489  0.91352011  0.71529569     0.13500
H1086       H  0.66904931  0.83217774  0.77530424    -0.00800
H1087       H  0.70233584  0.78788150  0.71443644     0.13800
H1088       H  0.57899837  0.79058058  0.71730803     0.13600
C1089       C  0.50757631  0.50064739  0.95205590     0.85400
C1090       C  0.98369866  0.52705828  0.94202829    -0.54900
C1091       C  0.98080284  0.52563087  0.91976274     0.08300
C1092       C  0.50329365  0.49792951  0.90967326     0.19200
C1093       C  0.97978760  0.95004036  0.94239849    -0.55600
C1094       C  0.97716869  0.94828955  0.92020572     0.08400
C1095       C  0.55680131  0.52338825  0.94117818    -0.55100
C1096       C  0.55477713  0.52194714  0.91895424     0.09000
H1097       H  0.97086554  0.54566764  0.95203850     0.13500
H1098       H  0.50189008  0.49572362  0.89177261    -0.00800
H1099       H  0.96277043  0.91846547  0.95247979     0.13800
H1100       H  0.59060555  0.54044983  0.94987011     0.13600
O1101       O  0.98871275  0.90971958  0.46994562    -0.79600
C1102       C  0.61080811  0.55603254  0.46597986     0.81400
O1103       O  0.53676321  0.96728386  0.54417363    -0.80700
O1104       O  0.55667628  0.61467775  0.51471167    -0.82200
O1105       O  0.91872032  0.51118308  0.47028941    -0.82000
O1106       O  0.91943636  0.90860796  0.46905053    -0.80600
Zn1107     Zn  0.53314937  0.96692883  0.48878816     1.55700
O1108       O  0.98747548  0.58052123  0.47077019    -0.82000
Cd1109     Cd  0.93330736  0.96612361  0.48846537     1.57000
Cd1110     Cd  0.50143258  0.00109930  0.53221506     1.59600
O1111       O  0.88602621  0.94056203  0.51389049    -0.82000
O1112       O  0.50085281  0.99979406  0.49958825    -1.92500
Cd1113     Cd  0.53352153  0.56706581  0.48917806     1.59900
O1114       O  0.93200798  0.96693094  0.54384218    -0.82000
O1115       O  0.59366204  0.58209840  0.47173441    -0.80600
C1116       C  0.55550030  0.94578108  0.53473629     0.81900
C1117       C  0.94521542  0.89098901  0.46358309     0.81600
O1118       O  0.59087650  0.51198781  0.47097301    -0.79600
C1119       C  0.94364595  0.55494552  0.46505830     0.82400
O1120       O  0.55580967  0.94271486  0.51405409    -0.79700
C1121       C  0.89095225  0.94461686  0.53451129     0.82500
C1122       C  0.55583541  0.61082527  0.53532052     0.82800
O1123       O  0.53670337  0.57026234  0.54454128    -0.82100
C1124       C  0.82891916  0.66349524  0.38143404     0.85400
C1125       C  0.77945166  0.63954096  0.39227118    -0.54900
C1126       C  0.78167103  0.64184638  0.41449459     0.08300
C1127       C  0.83289192  0.66783740  0.42396438     0.19200
C1128       C  0.85503243  0.71459013  0.39082570    -0.55600
C1129       C  0.85732652  0.71671490  0.41296645     0.08400
C1130       C  0.85408377  0.63874225  0.39196933    -0.55100
C1131       C  0.85624164  0.64110334  0.41415609     0.09000
H1132       H  0.74537061  0.62216860  0.38370661     0.13500
H1133       H  0.83465634  0.66965734  0.44202530    -0.00800
H1134       H  0.87060831  0.74635092  0.38081068     0.13800
H1135       H  0.86896092  0.62093790  0.38266363     0.13600
C1136       C  0.67189033  0.83764277  0.61905255     0.85400
C1137       C  0.64638475  0.78728440  0.60901634    -0.54900
C1138       C  0.64456835  0.78588202  0.58671356     0.08300
C1139       C  0.66897289  0.83628335  0.57664838     0.19200
C1140       C  0.72144945  0.86260082  0.60846143    -0.55600
C1141       C  0.72000672  0.86203296  0.58629586     0.08400
C1142       C  0.64598930  0.86213845  0.60907580    -0.55100
C1143       C  0.64410239  0.86134569  0.58684387     0.09000
H1144       H  0.63052152  0.75581753  0.61913333     0.13500
H1145       H  0.66917830  0.83773739  0.55873659    -0.00800
H1146       H  0.75517636  0.87843694  0.61721271     0.13800
H1147       H  0.62971517  0.87779358  0.61890779     0.13600
O1148       O  0.67816910  0.74863973  0.19536120    -0.79600
C1149       C  0.55929577  0.77704745  0.20147186     0.81400
O1150       O  0.63700183  0.76247735  0.12182493    -0.80700
O1151       O  0.61059919  0.88580389  0.15174532    -0.82200
O1152       O  0.74980054  0.92259811  0.19759527    -0.82000
O1153       O  0.74674187  0.81772762  0.19845176    -0.80600
Zn1154     Zn  0.63407735  0.76378741  0.17718870     1.55700
O1155       O  0.68228028  0.92494578  0.19577869    -0.82000
Cd1156     Cd  0.73526462  0.86321173  0.17919328     1.59700
Cd1157     Cd  0.66993558  0.83123476  0.13463030     1.59600
O1158       O  0.78426474  0.88692494  0.15437097    -0.82000
O1159       O  0.66839973  0.82968578  0.16725328    -1.92500
Cd1160     Cd  0.63630306  0.86464158  0.17775065     1.59900
O1161       O  0.73962532  0.86798905  0.12405103    -0.82000
O1162       O  0.57885683  0.82120890  0.19693645    -0.80600
C1163       C  0.61371325  0.72199495  0.13101403     0.81900
C1164       C  0.72103080  0.77347440  0.20264075     0.81600
O1165       O  0.57625122  0.75133432  0.19484227    -0.79600
C1166       C  0.72552202  0.94238426  0.20227706     0.82400
O1167       O  0.60947421  0.71832209  0.15160876    -0.79700
C1168       C  0.78026241  0.88704893  0.13371709     0.82500
C1169       C  0.61325589  0.88417234  0.13112809     0.82800
O1170       O  0.63499295  0.86525488  0.12205920    -0.82100
C1171       C  0.49791920  0.49554861  0.04780356     0.85400
C1172       C  0.52327437  0.97047516  0.05763941    -0.54900
C1173       C  0.52596319  0.97155703  0.07985399     0.08300
C1174       C  0.50242981  0.49799823  0.09017856     0.19200
C1175       C  0.94869569  0.97109406  0.05878236    -0.55600
C1176       C  0.95072861  0.97267496  0.08107160     0.08400
C1177       C  0.52414854  0.54613888  0.05754510    -0.55100
C1178       C  0.52659392  0.54769891  0.07973141     0.09000
H1179       H  0.53678281  0.95243959  0.04763009     0.13500
H1180       H  0.50571929  0.50030670  0.10805857    -0.00800
H1181       H  0.91510030  0.95292820  0.04999280     0.13800
H1182       H  0.53839879  0.57789598  0.04757673     0.13600
C1183       C  0.84029306  0.66720790  0.28557788     0.85400
C1184       C  0.88982590  0.69365622  0.27481105    -0.54900
C1185       C  0.88783102  0.69237124  0.25259044     0.08300
C1186       C  0.83671387  0.66522567  0.24301702     0.19200
C1187       C  0.81327869  0.69058067  0.27554339    -0.55600
C1188       C  0.81110243  0.68928265  0.25334091     0.08400
C1189       C  0.81605605  0.61668748  0.27558764    -0.55100
C1190       C  0.81412811  0.61586452  0.25342559     0.09000
H1191       H  0.92384766  0.71143622  0.28341331     0.13500
H1192       H  0.83509940  0.66432699  0.22494729    -0.00800
H1193       H  0.79692812  0.70644941  0.28519872     0.13800
H1194       H  0.80126154  0.58438303  0.28521410     0.13600
C1195       C  0.86819282  0.92005329  0.12950392    -0.14500
C1196       C  0.82397016  0.91005993  0.12054760     0.07700
C1197       C  0.82182885  0.92232743  0.09884580    -0.14500
C1198       C  0.86291106  0.94350118  0.08626182    -0.14500
C1199       C  0.90716119  0.95205376  0.09488662     0.07700
C1200       C  0.90916990  0.94054984  0.11681836    -0.14500
H1201       H  0.87101575  0.91117865  0.14624170     0.11700
H1202       H  0.78838976  0.91595479  0.09160504     0.11700
H1203       H  0.85958860  0.95341838  0.06981785     0.11700
H1204       H  0.94189258  0.94635468  0.12435953     0.11700
C1205       C  0.60787860  0.67729805  0.09674269    -0.14500
C1206       C  0.59097191  0.67800309  0.11757251     0.07700
C1207       C  0.55226162  0.63600743  0.12564109    -0.14500
C1208       C  0.53103013  0.59412432  0.11321334    -0.14500
C1209       C  0.54859290  0.59292721  0.09258136     0.07700
C1210       C  0.58715344  0.63511722  0.08443781    -0.14500
H1211       H  0.63781142  0.70911113  0.09015265     0.11700
H1212       H  0.53798231  0.63565928  0.14150891     0.11700
H1213       H  0.00040927  0.56292233  0.11975816     0.11700
H1214       H  0.60194330  0.63544252  0.06872240     0.11700
C1215       C  0.58328070  0.94009815  0.08368082    -0.14500
C1216       C  0.54815243  0.94826575  0.09269015     0.07700
C1217       C  0.53419072  0.93380002  0.11418865    -0.14500
C1218       C  0.55522825  0.91290316  0.12649377    -0.14500
C1219       C  0.59037820  0.90507951  0.11756422     0.07700
C1220       C  0.60385357  0.91836411  0.09592894    -0.14500
H1221       H  0.59573330  0.95123884  0.06732027     0.11700
H1222       H  0.50658975  0.93789602  0.12168087     0.11700
H1223       H  0.54360478  0.90250119  0.14304084     0.11700
H1224       H  0.63108430  0.91299636  0.08863866     0.11700
C1225       C  0.79847963  0.75732344  0.24451610    -0.14500
C1226       C  0.78710893  0.71016931  0.24056838     0.07700
C1227       C  0.75292515  0.68328469  0.22442298    -0.14500
C1228       C  0.73001866  0.70320886  0.21253596    -0.14500
C1229       C  0.74219990  0.75081902  0.21615694     0.07700
C1230       C  0.77674318  0.77767816  0.23221939    -0.14500
H1231       H  0.82495444  0.77870844  0.25683330     0.11700
H1232       H  0.74367207  0.64680590  0.22116855     0.11700
H1233       H  0.70380233  0.68189829  0.20012262     0.11700
H1234       H  0.78680510  0.81445221  0.23532494     0.11700
C1235       C  0.79650693  0.50793670  0.22222785    -0.14500
C1236       C  0.74822320  0.98682495  0.21553970     0.07700
C1237       C  0.72200746  0.00881291  0.22156784    -0.14500
C1238       C  0.74352687  0.55076614  0.23400549    -0.14500
C1239       C  0.79149439  0.57139879  0.24059894     0.07700
C1240       C  0.81793359  0.54992112  0.23465157    -0.14500
H1241       H  0.81779717  0.49210463  0.21782221     0.11700
H1242       H  0.68484173  0.99361209  0.21669655     0.11700
H1243       H  0.72276877  0.56712144  0.23852245     0.11700
H1244       H  0.85514618  0.56573898  0.23958670     0.11700
C1245       C  0.50938770  0.78190466  0.23089964    -0.14500
C1246       C  0.51553331  0.75523531  0.21459646     0.07700
C1247       C  0.97901865  0.70803839  0.21059411    -0.14500
C1248       C  0.93689564  0.68803388  0.22258062    -0.14500
C1249       C  0.93128952  0.71439297  0.23917180     0.07700
C1250       C  0.96792286  0.76142127  0.24330476    -0.14500
H1251       H  0.53700699  0.81838767  0.23426217     0.11700
H1252       H  0.98276629  0.68694924  0.19796877     0.11700
H1253       H  0.90910473  0.65162622  0.21921952     0.11700
H1254       H  0.96418530  0.78241041  0.25598829     0.11700
C1255       C  0.87555513  0.68580489  0.34662763    -0.14500
C1256       C  0.83060653  0.66304063  0.35659167     0.07700
C1257       C  0.78953937  0.64117206  0.34304634    -0.14500
C1258       C  0.79356824  0.64277483  0.32040691    -0.14500
C1259       C  0.83851666  0.66621442  0.31043825     0.07700
C1260       C  0.87958280  0.68754073  0.32399862    -0.14500
H1261       H  0.90795905  0.70273445  0.35651734     0.11700
H1262       H  0.75397503  0.62264876  0.34949419     0.11700
H1263       H  0.76117804  0.62567327  0.31051396     0.11700
H1264       H  0.91516952  0.70578785  0.31758579     0.11700
C1265       C  0.69169330  0.62466039  0.45743702    -0.14500
C1266       C  0.65502600  0.57761389  0.45319209     0.07700
C1267       C  0.66073588  0.55154803  0.43647915    -0.14500
C1268       C  0.70181734  0.57261223  0.42382056    -0.14500
C1269       C  0.73845747  0.61959801  0.42806853     0.07700
C1270       C  0.73345576  0.64524691  0.44518025    -0.14500
H1271       H  0.68818408  0.64531565  0.47036577     0.11700
H1272       H  0.63294739  0.51527408  0.43290668     0.11700
H1273       H  0.70521583  0.55206437  0.41080858     0.11700
H1274       H  0.76132472  0.68151973  0.44870144     0.11700
C1275       C  0.94780664  0.82190509  0.44655775    -0.14500
C1276       C  0.92367990  0.84732790  0.44981557     0.07700
C1277       C  0.87798465  0.82980754  0.44028039    -0.14500
C1278       C  0.85673749  0.78760833  0.42802447    -0.14500
C1279       C  0.88059546  0.76205698  0.42521639     0.07700
C1280       C  0.92630171  0.77949295  0.43441611    -0.14500
H1281       H  0.98298669  0.83438190  0.45365800     0.11700
H1282       H  0.85847530  0.84855166  0.44239168     0.11700
H1283       H  0.82138890  0.77448998  0.42097506     0.11700
H1284       H  0.94533603  0.76033325  0.43216560     0.11700
C1285       C  0.88488768  0.54959865  0.43672981    -0.14500
C1286       C  0.92092412  0.57678264  0.45215400     0.07700
C1287       C  0.93475682  0.62494110  0.45532077    -0.14500
C1288       C  0.91280788  0.64552215  0.44331522    -0.14500
C1289       C  0.87794900  0.61875233  0.42744529     0.07700
C1290       C  0.86407887  0.57064641  0.42423273    -0.14500
H1291       H  0.87351046  0.51236033  0.43406114     0.11700
H1292       H  0.96207042  0.64645834  0.46730650     0.11700
H1293       H  0.92368872  0.68255074  0.44612379     0.11700
H1294       H  0.83680421  0.54929934  0.41219827     0.11700
C1295       C  0.80530822  0.88313224  0.54028187    -0.14500
C1296       C  0.84757899  0.92317043  0.54788765     0.07700
C1297       C  0.84766923  0.94323191  0.56809832    -0.14500
C1298       C  0.80613231  0.92390765  0.58039376    -0.14500
C1299       C  0.76386711  0.88347271  0.57293332     0.07700
C1300       C  0.76398934  0.86323727  0.55276173    -0.14500
H1301       H  0.80441256  0.86678733  0.52479899     0.11700
H1302       H  0.87961259  0.97450575  0.57418886     0.11700
H1303       H  0.80708120  0.94104596  0.59563104     0.11700
H1304       H  0.73247397  0.83151809  0.54672773     0.11700
C1305       C  0.58703830  0.65396618  0.57097737    -0.14500
C1306       C  0.57780425  0.65491762  0.54868236     0.07700
C1307       C  0.59034652  0.69878519  0.53901753    -0.14500
C1308       C  0.61148085  0.74074775  0.55130641    -0.14500
C1309       C  0.62133541  0.74041677  0.57366641     0.07700
C1310       C  0.60886845  0.69614927  0.58327386    -0.14500
H1311       H  0.57811330  0.62069966  0.57887570     0.11700
H1312       H  0.58348686  0.70077291  0.52186356     0.11700
H1313       H  0.61943730  0.77298166  0.54292044     0.11700
H1314       H  0.61639969  0.69353043  0.60021735     0.11700
C1315       C  0.57857763  0.88364018  0.54064413    -0.14500
C1316       C  0.57752840  0.92391202  0.54817370     0.07700
C1317       C  0.59762561  0.94308069  0.56868885    -0.14500
C1318       C  0.61912071  0.92282561  0.58128273    -0.14500
C1319       C  0.62035063  0.88252057  0.57375300     0.07700
C1320       C  0.59929802  0.86289736  0.55339516    -0.14500
H1321       H  0.56270684  0.86773681  0.52501840     0.11700
H1322       H  0.59755637  0.97435072  0.57480934     0.11700
H1323       H  0.63552533  0.93933467  0.59672615     0.11700
H1324       H  0.59823887  0.83116758  0.54732327     0.11700
C1325       C  0.54387309  0.51774585  0.01291220    -0.14500
C1326       C  0.49909012  0.49623523  0.02298027     0.07700
C1327       C  0.95780808  0.97696784  0.00956687    -0.14500
C1328       C  0.96151942  0.97906268  0.98694863    -0.14500
C1329       C  0.50630553  0.50028797  0.97688282     0.07700
C1330       C  0.54758017  0.51973881  0.99030067    -0.14500
H1331       H  0.57640953  0.53316119  0.02270777     0.11700
H1332       H  0.92232537  0.96036102  0.01603701     0.11700
H1333       H  0.92899353  0.96383186  0.97715169     0.11700
H1334       H  0.58307810  0.53662173  0.98384724     0.11700
C1335       C  0.70823449  0.85461969  0.67989202    -0.14500
C1336       C  0.66350861  0.83184967  0.68996422     0.07700
C1337       C  0.62212647  0.81115526  0.67659865    -0.14500
C1338       C  0.62570815  0.81362857  0.65397004    -0.14500
C1339       C  0.67048163  0.83660327  0.64388328     0.07700
C1340       C  0.71181927  0.85713663  0.65730560    -0.14500
H1341       H  0.74082078  0.87076568  0.68966637     0.11700
H1342       H  0.58668185  0.79278006  0.68314409     0.11700
H1343       H  0.59313830  0.79729667  0.64419042     0.11700
H1344       H  0.74738515  0.87537270  0.65091318     0.11700
C1345       C  0.92472289  0.81832459  0.90332693    -0.14500
C1346       C  0.90747051  0.81824223  0.88224672     0.07700
C1347       C  0.91124784  0.86045176  0.87411897    -0.14500
C1348       C  0.93254549  0.90214393  0.88668091    -0.14500
C1349       C  0.95164207  0.90292666  0.90747120     0.07700
C1350       C  0.94698422  0.86030585  0.91573125    -0.14500
H1351       H  0.92239328  0.78628495  0.90996190     0.11700
H1352       H  0.89749309  0.86118047  0.85804304     0.11700
H1353       H  0.93370674  0.93358511  0.88002525     0.11700
H1354       H  0.46163426  0.85947466  0.93154320     0.11700
C1355       C  0.68243174  0.56732999  0.90066123    -0.14500
C1356       C  0.68185525  0.58509003  0.87989905     0.07700
C1357       C  0.63912129  0.58078866  0.87178301    -0.14500
C1358       C  0.59802367  0.56018557  0.88439228    -0.14500
C1359       C  0.59838165  0.54262315  0.90526925     0.07700
C1360       C  0.64105767  0.54587270  0.91310624    -0.14500
H1361       H  0.71478675  0.56959127  0.90719662     0.11700
H1362       H  0.63776547  0.59445714  0.85587093     0.11700
H1363       H  0.56650819  0.55926989  0.87784271     0.11700
H1364       H  0.64265497  0.53166214  0.92882373     0.11700
C1365       C  0.94656874  0.57877221  0.87231532    -0.14500
C1366       C  0.91488042  0.59077620  0.88189579     0.07700
C1367       C  0.90483378  0.58139614  0.90407082    -0.14500
C1368       C  0.92577541  0.56004650  0.91632057    -0.14500
C1369       C  0.95797381  0.54826046  0.90677904     0.07700
C1370       C  0.96789941  0.55805940  0.88456718    -0.14500
H1371       H  0.95527455  0.58570430  0.85526660     0.11700
H1372       H  0.88012736  0.58977545  0.91188190     0.11700
H1373       H  0.91581980  0.55220073  0.93316059     0.11700
H1374       H  0.99242404  0.55037870  0.87635294     0.11700
C1375       C  0.70907129  0.71337891  0.77523031    -0.14500
C1376       C  0.75612708  0.74127047  0.78337555     0.07700
C1377       C  0.78128229  0.79044202  0.77884911    -0.14500
C1378       C  0.75970515  0.81127967  0.76676849    -0.14500
C1379       C  0.71279703  0.78337783  0.75888623     0.07700
C1380       C  0.68763597  0.73431704  0.76303120    -0.14500
H1381       H  0.68874516  0.67546190  0.77836702     0.11700
H1382       H  0.81754264  0.81301046  0.78483334     0.11700
H1383       H  0.77963987  0.84916256  0.76352320     0.11700
H1384       H  0.65130045  0.71238840  0.75699126     0.11700
C1385       C  0.52419909  0.73134932  0.78935740    -0.14500
C1386       C  0.98901357  0.74407725  0.78594423     0.07700
C1387       C  0.99632161  0.77850151  0.77027534    -0.14500
C1388       C  0.53770654  0.79910368  0.75787668    -0.14500
C1389       C  0.57291435  0.78654988  0.76140463     0.07700
C1390       C  0.56624889  0.75302140  0.77737921    -0.14500
H1391       H  0.51939859  0.70508611  0.80146865     0.11700
H1392       H  0.96963180  0.78876856  0.76735019     0.11700
H1393       H  0.54244287  0.82507558  0.74561729     0.11700
H1394       H  0.59303628  0.74283121  0.78019757     0.11700
C1395       C  0.77183147  0.97730502  0.78743675    -0.14500
C1396       C  0.75746303  0.51134155  0.78460461     0.07700
C1397       C  0.72113925  0.50233294  0.76931823    -0.14500
C1398       C  0.70013984  0.96037546  0.75685816    -0.14500
C1399       C  0.71416842  0.92622553  0.75994754     0.07700
C1400       C  0.74977394  0.93473569  0.77545797    -0.14500
H1401       H  0.79953801  0.98325213  0.79921884     0.11700
H1402       H  0.70948110  0.52801178  0.76680769     0.11700
H1403       H  0.67242397  0.95418754  0.74503194     0.11700
H1404       H  0.76094832  0.90874883  0.77808421     0.11700
loop_ 
_geom_bond_atom_site_label_1 
_geom_bond_atom_site_label_2 
_geom_bond_distance 
_geom_bond_site_symmetry_2 
_ccdc_geom_bond_type 
O1           C17   1.276       .  A
O1           Zn7   2.036       .  S
C2           O18   1.276       .  A
C2           O15   1.275       .  A
C2          C343   1.478       .  S
O3           C16   1.275       .  A
O3          Cd10   2.064       .  S
O4           C22   1.273       .  A
O4          Cd13   2.058       .  S
O5           C19   1.275       .  A
O5           Cd9   2.069       .  S
O6           C17   1.273       .  A
O6           Cd9   2.062       .  S
Zn7          O18   2.032       .  S
Zn7          O20   2.025       .  S
Zn7          O12   1.951       .  S
O8           C19   1.274       .  A
O8          Cd13   2.065       .  S
Cd9          O11   2.065       .  S
Cd9          O12   1.997       .  S
Cd10         O14   2.077       .  S
Cd10         O23   2.079       .  S
Cd10         O12   2.007       .  S
O11          C21   1.275       .  A
O12         Cd13   1.995       .  S
Cd13         O15   2.065       .  S
O14          C21   1.276       .  A
C16          O20   1.276       .  A
C16         C303   1.477       .  S
C17         C323   1.485       .  S
C19         C333   1.472       .  S
C21         C293   1.477       .  S
C22          O23   1.275       .  A
C22         C313   1.481       .  S
C24          C25   1.539       .  S
C24          C30   1.542       .  S
C24          C28   1.540       .  S
C24         C283   1.524       .  S
C25          H32   1.086       .  S
C25          C26   1.364       .  D
C26          C27   1.537       .  S
C26         C346   1.477       .  S
C27          C31   1.536       .  S
C27          C29   1.532       .  S
C27          H33   1.111       .  S
C28          H34   1.086       .  S
C28          C29   1.362       .  D
C29         C326   1.472       .  S
C30          H35   1.081       .  S
C30          C31   1.364       .  D
C31         C336   1.473       .  S
C36          C42   1.542       .  S
C36         C739   1.536   1_455  S
C36        C1093   1.536   1_445  S
C36         C276   1.528       .  S
C37         C738   1.536       .  S
C37          H44   1.084       .  S
C37          C38   1.370       .  D
C38         C741   1.547   1_545  S
C38         C316   1.499       .  S
C39          C43   1.542   1_565  S
C39         C740   1.547   1_465  S
C39        C1094   1.540   1_455  S
C39          H45   1.102       .  S
C40        C1089   1.536       .  S
C40          H46   1.085       .  S
C40          C41   1.365       .  D
C41        C1092   1.540       .  S
C41         C296   1.491       .  S
C42          H47   1.079       .  S
C42          C43   1.367       .  D
C43         C306   1.493       .  S
O48          C64   1.276       .  A
O48        Zn756   2.032       .  S
C49          O65   1.277       .  A
C49          O62   1.275       .  A
C49         C213   1.476       .  S
O50          C63   1.275       .  A
O50         Cd57   2.069       .  S
O51          C69   1.273       .  A
O51         Cd60   2.054       .  S
O52          C66   1.275       .  A
O52        Cd407   2.069   1_545  S
O53          C64   1.274       .  A
O53         Cd56   2.062       .  S
Zn54         O67   2.028       .  S
Zn54        O750   2.032   1_455  S
Zn54        O416   2.034       .  S
Zn54         O59   1.952       .  S
O55          C66   1.275       .  A
O55        Cd762   2.072       .  S
Cd56         O58   2.065       .  S
Cd56        O403   2.069       .  S
Cd56        O761   1.999       .  S
Cd57        O763   2.080   1_455  S
Cd57        O421   2.078       .  S
Cd57         O59   2.006       .  S
O58          C68   1.274       .  A
O59        Cd758   1.999   1_455  S
O59        Cd411   1.997       .  S
Cd60         O62   2.069       .  S
Cd60        O757   2.072   1_455  S
Cd60        O410   1.997   1_545  S
O61          C68   1.277       .  A
O61        Cd759   2.080       .  S
C63          O67   1.276       .  A
C63         C263   1.477       .  S
C64         C223   1.484       .  S
O65        Zn405   2.034   1_545  S
C66         C233   1.475       .  S
C68         C243   1.477       .  S
C69          O70   1.275       .  A
C69         C253   1.480       .  S
O70        Cd408   2.078       .  S
C71          C72   1.546       .  S
C71          C77   1.539       .  S
C71          C75   1.541       .  S
C71         C203   1.530       .  S
C72          H79   1.082       .  S
C72          C73   1.367       .  D
C73          C74   1.538       .  S
C73         C216   1.480       .  S
C74          C78   1.536       .  S
C74          C76   1.533       .  S
C74          H80   1.111       .  S
C75          H81   1.086       .  S
C75          C76   1.362       .  D
C76         C226   1.473       .  S
C77          H82   1.086       .  S
C77          C78   1.365       .  D
C78         C236   1.476       .  S
C83          C84   1.537       .  S
C83          C89   1.537       .  S
C83          C87   1.541       .  S
C83         C286   1.528       .  S
C84          H91   1.083       .  S
C84          C85   1.372       .  D
C85          C86   1.547       .  S
C85         C256   1.501       .  S
C86          C90   1.541       .  S
C86          C88   1.537       .  S
C86          H92   1.102       .  S
C87          H93   1.079       .  S
C87          C88   1.363       .  D
C88         C246   1.487       .  S
C89          H94   1.086       .  S
C89          C90   1.367       .  D
C90         C266   1.490       .  S
O95         C111   1.278       .  A
O95        Zn101   2.045       .  S
C96         O112   1.276       .  A
C96         O109   1.274       .  A
C96         C193   1.477       .  S
O97         C110   1.276       .  A
O97        Cd104   2.079       .  S
O98         C116   1.275       .  A
O98        Cd107   2.062       .  S
O99         C113   1.275       .  A
O99        Cd103   2.071       .  S
O100        C111   1.274       .  A
O100       Cd103   2.061       .  S
Zn101       O112   2.034       .  S
Zn101       O114   2.018       .  S
Zn101       O106   1.951       .  S
O102        C113   1.275       .  A
O102       Cd107   2.074       .  S
Cd103       O105   2.068       .  S
Cd103       O106   1.998       .  S
Cd104       O108   2.066       .  S
Cd104       O117   2.078       .  S
Cd104       O106   2.007       .  S
O105        C115   1.275       .  A
O106       Cd107   1.996       .  S
Cd107       O109   2.064       .  S
O108        C115   1.275       .  A
C110        O114   1.275       .  A
C110        C153   1.480       .  S
C111        C176   1.479       .  S
C113        C183   1.484       .  S
C115        C143   1.478       .  S
C116        O117   1.276       .  A
C116        C166   1.479       .  S
C118        C124   1.536   1_665  S
C118        C470   1.535   1_655  S
C118       C1175   1.543       .  S
C118        C273   1.527       .  S
C119        C469   1.535   1_455  S
C119        H126   1.085       .  S
C119        C120   1.367       .  D
C120        C472   1.546       .  S
C120        C163   1.495       .  S
C121        C125   1.539   1_565  S
C121        C471   1.546       .  S
C121       C1176   1.542   1_455  S
C121        H127   1.102   1_565  S
C122       C1171   1.543       .  S
C122        H128   1.077       .  S
C122        C123   1.371       .  D
C123       C1174   1.542       .  S
C123        C146   1.497       .  S
C124        H129   1.086       .  S
C124        C125   1.365       .  D
C125        C156   1.490       .  S
C130        C131   1.546       .  S
C130        C136   1.541       .  S
C130        C134   1.539       .  S
C130        C206   1.530       .  S
C131        H138   1.082       .  S
C131        C132   1.367       .  D
C132        C133   1.538       .  S
C132        C196   1.480       .  S
C133        C137   1.530       .  S
C133        C135   1.537       .  S
C133        H139   1.111       .  S
C134        H140   1.086       .  S
C134        C135   1.366       .  D
C135        C173   1.479       .  S
C136        H141   1.086       .  S
C136        C137   1.363       .  D
C137        C186   1.471       .  S
C142        C143   1.402       .  A
C142        C147   1.397       .  A
C142        H148   1.083       .  S
C143        C144   1.403       .  A
C144        C145   1.396       .  A
C144        H149   1.083       .  S
C145        C146   1.410       .  A
C145        H150   1.081       .  S
C146        C147   1.408       .  A
C147        H151   1.076       .  S
C152        C153   1.405       .  A
C152        C157   1.400       .  A
C152        H158   1.083       .  S
C153        C154   1.404       .  A
C154        C155   1.397       .  A
C154        H159   1.083       .  S
C155        C156   1.406       .  A
C155        H862   1.082       .  S
C156        C157   1.407       .  A
C157        H161   1.082       .  S
H160        C857   1.082       .  S
C162        C163   1.410       .  A
C162        C167   1.401       .  A
C162        H168   1.081       .  S
C163        C164   1.405       .  A
C164        C165   1.394       .  A
C164        H169   1.076       .  S
C165        C166   1.402       .  A
C165        H170   1.083       .  S
C166        C167   1.404       .  A
C167        H171   1.083       .  S
C172        C173   1.402       .  A
C172        C177   1.397       .  A
C172        H178   1.083       .  S
C173        C174   1.404       .  A
C174        C175   1.402       .  A
C174        H179   1.083       .  S
C175        C176   1.406       .  A
C175        H180   1.083       .  S
C176        C177   1.405       .  A
C177        H181   1.083       .  S
C182        C187   1.399       .  A
C182        C534   1.409   1_545  A
C182        H188   1.083   1_545  S
C183        C184   1.408       .  A
C183        C533   1.409       .  A
C184        C536   1.399       .  A
C184        H189   1.083       .  S
C185        C186   1.400       .  A
C185        C535   1.399       .  A
C185        H190   1.083       .  S
C186        C187   1.399       .  A
C187        H191   1.083       .  S
C192        C193   1.405       .  A
C192        C899   1.398   1_455  A
C192        H198   1.084       .  S
C193        C896   1.405   1_455  A
C194        C195   1.400       .  A
C194        C895   1.405       .  A
C194        H199   1.083       .  S
C195        C196   1.403       .  A
C195        H200   1.083       .  S
C196        C197   1.404       .  A
C197        C894   1.398       .  A
C197        H201   1.083       .  S
C202        C203   1.407       .  A
C202        C207   1.398       .  A
C202        H208   1.084       .  S
C203        C204   1.409       .  A
C204        C205   1.398       .  A
C204        H209   1.077       .  S
C205        C206   1.408       .  A
C205        H210   1.084       .  S
C206        C207   1.409       .  A
C207        H211   1.077       .  S
C212        C213   1.406       .  A
C212        C217   1.400       .  A
C212        H218   1.083       .  S
C213        C214   1.403       .  A
C214        C215   1.398       .  A
C214        H219   1.083       .  S
C215        C216   1.404       .  A
C215        H220   1.083       .  S
C216        C217   1.403       .  A
C217        H221   1.083       .  S
C222        C223   1.407       .  A
C222        C227   1.400       .  A
C222        H228   1.083       .  S
C223        C224   1.408       .  A
C224        C225   1.398       .  A
C224        H229   1.083       .  S
C225        C226   1.400       .  A
C225        H230   1.083       .  S
C226        C227   1.401       .  A
C227        H231   1.082       .  S
C232        C233   1.405       .  A
C232        C237   1.398       .  A
C232        H238   1.083       .  S
C233        C234   1.405       .  A
C234        C235   1.398       .  A
C234        H239   1.083       .  S
C235        C236   1.401       .  A
C235        H240   1.082       .  S
C236        C237   1.403       .  A
C237        H241   1.083       .  S
C242        C243   1.405       .  A
C242        C247   1.398       .  A
C242        H248   1.083       .  S
C243        C244   1.403       .  A
C244        C245   1.397       .  A
C244        H249   1.083       .  S
C245        C246   1.408       .  A
C245        H250   1.082       .  S
C246        C247   1.405       .  A
C247        H251   1.082       .  S
C252        C253   1.402       .  A
C252        C257   1.399       .  A
C252        H258   1.083       .  S
C253        C254   1.402       .  A
C254        C255   1.394       .  A
C254        H259   1.083       .  S
C255        C256   1.408       .  A
C255        H260   1.076       .  S
C256        C257   1.413       .  A
C257        H261   1.079       .  S
C262        C263   1.403       .  A
C262        C267   1.398       .  A
C262        H268   1.083       .  S
C263        C264   1.404       .  A
C264        C265   1.399       .  A
C264        H269   1.083       .  S
C265        C266   1.407       .  A
C265        H270   1.082       .  S
C266        C267   1.406       .  A
C267        H271   1.079       .  S
C272        C273   1.406   1_445  A
C272        C277   1.396   1_554  A
C272        H278   1.084       .  S
C273       C1327   1.409       .  A
C274        C275   1.396   1_554  A
C274       C1326   1.409       .  A
C274        H279   1.076       .  S
C275       C1329   1.407       .  A
C275        H280   1.084       .  S
C276        C277   1.409       .  A
C276       C1328   1.407   1_445  A
C277        H281   1.076       .  S
C282        C283   1.405       .  A
C282        C287   1.394       .  A
C282        H288   1.084       .  S
C283        C284   1.409       .  A
C284        C285   1.397       .  A
C284        H289   1.076       .  S
C285        C286   1.406       .  A
C285        H290   1.084       .  S
C286        C287   1.410       .  A
C287        H291   1.076       .  S
C292        C293   1.403       .  A
C292        C297   1.398       .  A
C292        H298   1.083       .  S
C293        C294   1.404       .  A
C294        C295   1.397       .  A
C294        H299   1.083       .  S
C295        C296   1.406       .  A
C295        H300   1.082       .  S
C296        C297   1.408       .  A
C297       H1003   1.082       .  S
H301        C999   1.082       .  S
C302        C303   1.404       .  A
C302        C307   1.398       .  A
C302        H308   1.083       .  S
C303        C304   1.402       .  A
C304        C305   1.397       .  A
C304        H309   1.083       .  S
C305        C306   1.406       .  A
C305        H310   1.077       .  S
C306        C307   1.409       .  A
C307        H311   1.082       .  S
C312        C313   1.403       .  A
C312        C317   1.394       .  A
C312        H318   1.083       .  S
C313        C314   1.403       .  A
C314        C315   1.400       .  A
C314        H319   1.083       .  S
C315        C316   1.412       .  A
C315        H320   1.080       .  S
C316        C317   1.407       .  A
C317        H321   1.076       .  S
C322        C323   1.408       .  A
C322        C327   1.401       .  A
C322        H328   1.083       .  S
C323        C324   1.409       .  A
C324        C325   1.398       .  A
C324        H329   1.083       .  S
C325        C326   1.399       .  A
C325        H330   1.083       .  S
C326        C327   1.401       .  A
C327        H331   1.083       .  S
C332        C337   1.398       .  A
C332       C1035   1.405   1_455  A
C332        H338   1.083       .  S
C333        C334   1.403       .  A
C333       C1034   1.405       .  A
C334       C1037   1.396       .  A
C334        H339   1.083       .  S
C335        C336   1.403       .  A
C335       C1036   1.396   1_455  A
C335        H340   1.083       .  S
C336        C337   1.401       .  A
C337        H341   1.083       .  S
C342        C347   1.398       .  A
C342        C694   1.406       .  A
C342        H348   1.083       .  S
C343        C344   1.405       .  A
C343        C693   1.406   1_545  A
C344        C696   1.399   1_545  A
C344        H349   1.083       .  S
C345        C346   1.404       .  A
C345        C695   1.399       .  A
C345        H350   1.083       .  S
C346        C347   1.401       .  A
C347        H351   1.082       .  S
O352        C368   1.276       .  A
O352       Zn358   2.036       .  S
C353        O369   1.276       .  A
C353        O366   1.275       .  A
C353        C694   1.478       .  S
O354        C367   1.275       .  A
O354       Cd361   2.064       .  S
O355        C373   1.273       .  A
O355       Cd364   2.058       .  S
O356        C370   1.275       .  A
O356       Cd360   2.069       .  S
O357        C368   1.273       .  A
O357       Cd360   2.062       .  S
Zn358       O369   2.032       .  S
Zn358       O371   2.025       .  S
Zn358       O363   1.951       .  S
O359        C370   1.274       .  A
O359       Cd364   2.065       .  S
Cd360       O362   2.065       .  S
Cd360       O363   1.997       .  S
Cd361       O365   2.077       .  S
Cd361       O374   2.079       .  S
Cd361       O363   2.007       .  S
O362        C372   1.275       .  A
O363       Cd364   1.995       .  S
Cd364       O366   2.065       .  S
O365        C372   1.276       .  A
C367        O371   1.276       .  A
C367        C654   1.477       .  S
C368        C674   1.485       .  S
C370        C684   1.472       .  S
C372        C644   1.477       .  S
C373        O374   1.275       .  A
C373        C664   1.481       .  S
C375        C376   1.539       .  S
C375        C381   1.542       .  S
C375        C379   1.540       .  S
C375        C634   1.524       .  S
C376        H383   1.086       .  S
C376        C377   1.364       .  D
C377        C378   1.537       .  S
C377        C697   1.477       .  S
C378        C382   1.536       .  S
C378        C380   1.532       .  S
C378        H384   1.111       .  S
C379        H385   1.086       .  S
C379        C380   1.362       .  D
C380        C677   1.472       .  S
C381        H386   1.081       .  S
C381        C382   1.364       .  D
C382        C687   1.473       .  S
C387       C1090   1.536   1_455  S
C387        C393   1.542       .  S
C387        C742   1.536   1_455  S
C387        C627   1.528       .  S
C388       C1089   1.536       .  S
C388        H395   1.084       .  S
C388        C389   1.370       .  D
C389       C1092   1.547       .  S
C389        C667   1.499       .  S
C390       C1091   1.547   1_455  S
C390        C394   1.542       .  S
C390        C743   1.540   1_455  S
C390        H396   1.102       .  S
C391        C738   1.536   1_565  S
C391        H397   1.085       .  S
C391        C392   1.365       .  D
C392        C741   1.540       .  S
C392        C647   1.491       .  S
C393        H398   1.079       .  S
C393        C394   1.367       .  D
C394        C657   1.493       .  S
O399        C415   1.276       .  A
O399      Zn1107   2.032       .  S
C400        O416   1.277       .  A
C400        O413   1.275       .  A
C400        C564   1.476       .  S
O401        C414   1.275       .  A
O401       Cd408   2.070   1_565  S
O402        C420   1.273       .  A
O402       Cd411   2.054       .  S
O403        C417   1.275       .  A
O404        C415   1.274       .  A
O404       Cd407   2.063       .  S
Zn405      O1101   2.032   1_455  S
Zn405       O418   2.027       .  S
Zn405       O410   1.952       .  S
O406        C417   1.275       .  A
O406      Cd1113   2.072       .  S
Cd407       O409   2.065       .  S
Cd407      O1112   1.999       .  S
Cd408      O1114   2.080   1_445  S
Cd408       O410   2.006   1_545  S
O409        C419   1.274       .  A
O410      Cd1109   1.999   1_455  S
Cd411      O1108   2.072   1_455  S
Cd411       O413   2.069       .  S
O412        C419   1.277       .  A
O412      Cd1110   2.080   1_565  S
C414        O418   1.276       .  A
C414        C614   1.477       .  S
C415        C574   1.484       .  S
C417        C584   1.475       .  S
C419        C594   1.477       .  S
C420        O421   1.275       .  A
C420        C604   1.480       .  S
C422        C423   1.546       .  S
C422        C428   1.538       .  S
C422        C426   1.541       .  S
C422        C554   1.530       .  S
C423        H430   1.082       .  S
C423        C424   1.367       .  D
C424        C425   1.538       .  S
C424        C567   1.480       .  S
C425        C429   1.536       .  S
C425        C427   1.533       .  S
C425        H431   1.111       .  S
C426        H432   1.086       .  S
C426        C427   1.362       .  D
C427        C577   1.473       .  S
C428        H433   1.086       .  S
C428        C429   1.365       .  D
C429        C587   1.476       .  S
C434        C435   1.537       .  S
C434        C440   1.537       .  S
C434        C438   1.541       .  S
C434        C637   1.528       .  S
C435        H442   1.083       .  S
C435        C436   1.372       .  D
C436        C437   1.547       .  S
C436        C607   1.501       .  S
C437        C441   1.541       .  S
C437        C439   1.537       .  S
C437        H443   1.102       .  S
C438        H444   1.079       .  S
C438        C439   1.363       .  D
C439        C597   1.488       .  S
C440        H445   1.086       .  S
C440        C441   1.367       .  D
C441        C617   1.490       .  S
O446        C462   1.278       .  A
O446       Zn452   2.045       .  S
C447        O463   1.276       .  A
C447        O460   1.274       .  A
C447        C544   1.477       .  S
O448        C461   1.276       .  A
O448       Cd455   2.078       .  S
O449        C467   1.275       .  A
O449       Cd458   2.062       .  S
O450        C464   1.275       .  A
O450       Cd454   2.071       .  S
O451        C462   1.274       .  A
O451       Cd454   2.061       .  S
Zn452       O463   2.034       .  S
Zn452       O465   2.018       .  S
Zn452       O457   1.951       .  S
O453        C464   1.275       .  A
O453       Cd458   2.074       .  S
Cd454       O456   2.068       .  S
Cd454       O457   1.998       .  S
Cd455       O459   2.066       .  S
Cd455       O468   2.078       .  S
Cd455       O457   2.007       .  S
O456        C466   1.275       .  A
O457       Cd458   1.996       .  S
Cd458       O460   2.064       .  S
O459        C466   1.275       .  A
C461        O465   1.275       .  A
C461        C504   1.480       .  S
C462        C527   1.479       .  S
C464        C534   1.484       .  S
C466        C494   1.478       .  S
C467        O468   1.276       .  A
C467        C517   1.479       .  S
C469        C475   1.536   1_655  S
C469        C824   1.543       .  S
C469        C624   1.527       .  S
C470        H477   1.085       .  S
C470        C471   1.367       .  D
C471        C514   1.495       .  S
C472        C476   1.539       .  S
C472        C825   1.542   1_455  S
C472        H478   1.102       .  S
C473        C820   1.543       .  S
C473        H479   1.077       .  S
C473        C474   1.371       .  D
C474        C823   1.542       .  S
C474        C497   1.497       .  S
C475        H480   1.086       .  S
C475        C476   1.365       .  D
C476        C507   1.490       .  S
C481        C482   1.546       .  S
C481        C487   1.541       .  S
C481        C485   1.539       .  S
C481        C557   1.530       .  S
C482        H489   1.082       .  S
C482        C483   1.367       .  D
C483        C484   1.538       .  S
C483        C547   1.480       .  S
C484        C488   1.530       .  S
C484        C486   1.537       .  S
C484        H490   1.111       .  S
C485        H491   1.086       .  S
C485        C486   1.366       .  D
C486        C524   1.479       .  S
C487        H492   1.086       .  S
C487        C488   1.363       .  D
C488        C537   1.471       .  S
C493        C494   1.402       .  A
C493        C498   1.397       .  A
C493        H499   1.083       .  S
C494        C495   1.403       .  A
C495        C496   1.396       .  A
C495        H500   1.083       .  S
C496        C497   1.410       .  A
C496        H501   1.081       .  S
C497        C498   1.408       .  A
C498        H502   1.076       .  S
C503        C504   1.405       .  A
C503        C508   1.400       .  A
C503        H509   1.083       .  S
C504        C505   1.404       .  A
C505        C506   1.397       .  A
C505        H510   1.083       .  S
C506        C507   1.406       .  A
C506       H1213   1.082       .  S
C507        C508   1.407       .  A
C508        H512   1.082       .  S
H511       C1208   1.082       .  S
C513        C514   1.410       .  A
C513        C518   1.401       .  A
C513        H519   1.081       .  S
C514        C515   1.405       .  A
C515        C516   1.394       .  A
C515        H520   1.076       .  S
C516        C517   1.402       .  A
C516        H521   1.083       .  S
C517        C518   1.404       .  A
C518        H522   1.083       .  S
C523        C524   1.402       .  A
C523        C528   1.397       .  A
C523        H529   1.083       .  S
C524        C525   1.404       .  A
C525        C526   1.402       .  A
C525        H530   1.083       .  S
C526        C527   1.406       .  A
C526        H531   1.083       .  S
C527        C528   1.405       .  A
C528        H532   1.083       .  S
C533        C538   1.399       .  A
C533        H539   1.083       .  S
C534        C535   1.408   1_565  A
C535        H540   1.083   1_545  S
C536        C537   1.400       .  A
C536        H541   1.083       .  S
C537        C538   1.399       .  A
C538        H542   1.083       .  S
C543        C544   1.405       .  A
C543       C1250   1.398   1_455  A
C543        H549   1.084       .  S
C544       C1247   1.405   1_455  A
C545       C1246   1.405       .  A
C545        C546   1.400       .  A
C545        H550   1.083       .  S
C546        C547   1.403       .  A
C546        H551   1.083       .  S
C547        C548   1.404       .  A
C548       C1245   1.398       .  A
C548        H552   1.083       .  S
C553        C554   1.407       .  A
C553        C558   1.398       .  A
C553        H559   1.084       .  S
C554        C555   1.409       .  A
C555        C556   1.398       .  A
C555        H560   1.077       .  S
C556        C557   1.408       .  A
C556        H561   1.084       .  S
C557        C558   1.409       .  A
C558        H562   1.077       .  S
C563        C564   1.406       .  A
C563        C568   1.400       .  A
C563        H569   1.083       .  S
C564        C565   1.403       .  A
C565        C566   1.398       .  A
C565        H570   1.083       .  S
C566        C567   1.404       .  A
C566        H571   1.083       .  S
C567        C568   1.403       .  A
C568        H572   1.083       .  S
C573        C574   1.407       .  A
C573        C578   1.400       .  A
C573        H579   1.083       .  S
C574        C575   1.408       .  A
C575        C576   1.398       .  A
C575        H580   1.083       .  S
C576        C577   1.400       .  A
C576        H581   1.083       .  S
C577        C578   1.401       .  A
C578        H582   1.082       .  S
C583        C584   1.405       .  A
C583        C588   1.398       .  A
C583        H589   1.083       .  S
C584        C585   1.405       .  A
C585        C586   1.398       .  A
C585        H590   1.083       .  S
C586        C587   1.401       .  A
C586        H591   1.082       .  S
C587        C588   1.403       .  A
C588        H592   1.083       .  S
C593        C594   1.405       .  A
C593        C598   1.398       .  A
C593        H599   1.083       .  S
C594        C595   1.403       .  A
C595        C596   1.397       .  A
C595        H600   1.083       .  S
C596        C597   1.408       .  A
C596        H601   1.082       .  S
C597        C598   1.405       .  A
C598        H602   1.082       .  S
C603        C604   1.402       .  A
C603        C608   1.399       .  A
C603        H609   1.083       .  S
C604        C605   1.402       .  A
C605        C606   1.394       .  A
C605        H610   1.083       .  S
C606        C607   1.408       .  A
C606        H611   1.076       .  S
C607        C608   1.413       .  A
C608        H612   1.079       .  S
C613        C614   1.403       .  A
C613        C618   1.398       .  A
C613        H619   1.083       .  S
C614        C615   1.404       .  A
C615        C616   1.399       .  A
C615        H620   1.083       .  S
C616        C617   1.407       .  A
C616        H621   1.082       .  S
C617        C618   1.406       .  A
C618        H622   1.079       .  S
C623        C624   1.406   1_455  A
C623        C628   1.396   1_554  A
C623        H629   1.084       .  S
C624        C976   1.409       .  A
C625        C975   1.409       .  A
C625        C626   1.396   1_554  A
C625        H630   1.076       .  S
C626        C978   1.407   1_565  A
C626        H631   1.084       .  S
C627        C977   1.407   1_455  A
C627        C628   1.409       .  A
C628        H632   1.076       .  S
C633        C634   1.405       .  A
C633        C638   1.394       .  A
C633        H639   1.084       .  S
C634        C635   1.409       .  A
C635        C636   1.397       .  A
C635        H640   1.076       .  S
C636        C637   1.406       .  A
C636        H641   1.084       .  S
C637        C638   1.410       .  A
C638        H642   1.076       .  S
C643        C644   1.403       .  A
C643        C648   1.398       .  A
C643        H649   1.083       .  S
C644        C645   1.404       .  A
C645        C646   1.397       .  A
C645        H650   1.083       .  S
C646        C647   1.406       .  A
C646        H651   1.082       .  S
C647        C648   1.408       .  A
C648       H1354   1.082       .  S
H652       C1350   1.082       .  S
C653        C654   1.404       .  A
C653        C658   1.398       .  A
C653        H659   1.083       .  S
C654        C655   1.402       .  A
C655        C656   1.397       .  A
C655        H660   1.083       .  S
C656        C657   1.406       .  A
C656        H661   1.077       .  S
C657        C658   1.409       .  A
C658        H662   1.082       .  S
C663        C664   1.403       .  A
C663        C668   1.394       .  A
C663        H669   1.083       .  S
C664        C665   1.403       .  A
C665        C666   1.400       .  A
C665        H670   1.083       .  S
C666        C667   1.412       .  A
C666        H671   1.080       .  S
C667        C668   1.407       .  A
C668        H672   1.076       .  S
C673        C674   1.408       .  A
C673        C678   1.401       .  A
C673        H679   1.083       .  S
C674        C675   1.409       .  A
C675        C676   1.398       .  A
C675        H680   1.083       .  S
C676        C677   1.399       .  A
C676        H681   1.083       .  S
C677        C678   1.401       .  A
C678        H682   1.083       .  S
C683       C1386   1.405   1_455  A
C683        C688   1.398       .  A
C683        H689   1.083       .  S
C684       C1385   1.405       .  A
C684        C685   1.403       .  A
C685       C1388   1.396       .  A
C685        H690   1.083       .  S
C686       C1387   1.396   1_455  A
C686        C687   1.403       .  A
C686        H691   1.083       .  S
C687        C688   1.401       .  A
C688        H692   1.083       .  S
C693        C698   1.398       .  A
C693        H699   1.083       .  S
C694        C695   1.405       .  A
C695        H700   1.083       .  S
C696        C697   1.404       .  A
C696        H701   1.083       .  S
C697        C698   1.401       .  A
C698        H702   1.082       .  S
O703        C719   1.276       .  A
O703       Zn709   2.036       .  S
C704        O720   1.276       .  A
C704        O717   1.275       .  A
C704       C1045   1.478       .  S
O705        C718   1.275       .  A
O705       Cd712   2.064       .  S
O706        C724   1.273       .  A
O706       Cd715   2.058       .  S
O707        C721   1.275       .  A
O707       Cd711   2.069       .  S
O708        C719   1.273       .  A
O708       Cd711   2.062       .  S
Zn709       O720   2.032       .  S
Zn709       O722   2.025       .  S
Zn709       O714   1.951       .  S
O710        C721   1.274       .  A
O710       Cd715   2.065       .  S
Cd711       O713   2.065       .  S
Cd711       O714   1.997       .  S
Cd712       O716   2.077       .  S
Cd712       O725   2.079       .  S
Cd712       O714   2.007       .  S
O713        C723   1.275       .  A
O714       Cd715   1.995       .  S
Cd715       O717   2.065       .  S
O716        C723   1.276       .  A
C718        O722   1.276       .  A
C718       C1005   1.477       .  S
C719       C1025   1.485       .  S
C721       C1035   1.472       .  S
C723        C995   1.477       .  S
C724        O725   1.275       .  A
C724       C1015   1.481       .  S
C726        C727   1.539       .  S
C726        C732   1.542       .  S
C726        C730   1.540       .  S
C726        C985   1.524       .  S
C727        H734   1.086       .  S
C727        C728   1.364       .  D
C728        C729   1.537       .  S
C728       C1048   1.477       .  S
C729        C733   1.536       .  S
C729        C731   1.532       .  S
C729        H735   1.111       .  S
C730        H736   1.086       .  S
C730        C731   1.362       .  D
C731       C1028   1.472       .  S
C732        H737   1.081       .  S
C732        C733   1.364       .  D
C733       C1038   1.473       .  S
C738        C744   1.542       .  S
C738        C978   1.528       .  S
C739        H746   1.084       .  S
C739        C740   1.370       .  D
C740       C1018   1.499       .  S
C741        C745   1.542   1_565  S
C741        H747   1.102       .  S
C742        H748   1.085       .  S
C742        C743   1.365       .  D
C743        C998   1.491       .  S
C744        H749   1.079       .  S
C744        C745   1.367       .  D
C745       C1008   1.493       .  S
O750        C766   1.276       .  A
C751        O767   1.277       .  A
C751        O764   1.275       .  A
C751        C915   1.476       .  S
O752        C765   1.275       .  A
O752       Cd759   2.069       .  S
O753        C771   1.273       .  A
O753       Cd762   2.054       .  S
O754        C768   1.275       .  A
O754      Cd1109   2.069   1_545  S
O755        C766   1.274       .  A
O755       Cd758   2.062       .  S
Zn756      O1118   2.034       .  S
Zn756       O769   2.027       .  S
Zn756       O761   1.952       .  S
O757        C768   1.275       .  A
Cd758      O1105   2.069       .  S
Cd758       O760   2.065       .  S
Cd759      O1123   2.078       .  S
Cd759       O761   2.006       .  S
O760        C770   1.274       .  A
O761      Cd1113   1.997       .  S
Cd762       O764   2.069       .  S
Cd762      O1112   1.997   1_545  S
O763        C770   1.277       .  A
C765        O769   1.276       .  A
C765        C965   1.477       .  S
C766        C925   1.484       .  S
O767      Zn1107   2.034   1_545  S
C768        C935   1.475       .  S
C770        C945   1.477       .  S
C771        O772   1.275       .  A
C771        C955   1.480       .  S
O772      Cd1110   2.078       .  S
C773        C774   1.546       .  S
C773        C779   1.539       .  S
C773        C777   1.541       .  S
C773        C905   1.530       .  S
C774        H781   1.082       .  S
C774        C775   1.367       .  D
C775        C776   1.538       .  S
C775        C918   1.480       .  S
C776        C780   1.536       .  S
C776        C778   1.533       .  S
C776        H782   1.111       .  S
C777        H783   1.086       .  S
C777        C778   1.362       .  D
C778        C928   1.473       .  S
C779        H784   1.086       .  S
C779        C780   1.365       .  D
C780        C938   1.476       .  S
C785        C786   1.537       .  S
C785        C791   1.537       .  S
C785        C789   1.541       .  S
C785        C988   1.528       .  S
C786        H793   1.083       .  S
C786        C787   1.372       .  D
C787        C788   1.547       .  S
C787        C958   1.501       .  S
C788        C792   1.541       .  S
C788        C790   1.537       .  S
C788        H794   1.102       .  S
C789        H795   1.079       .  S
C789        C790   1.363       .  D
C790        C948   1.487       .  S
C791        H796   1.086       .  S
C791        C792   1.367       .  D
C792        C968   1.490       .  S
O797        C813   1.278       .  A
O797       Zn803   2.045       .  S
C798        O814   1.276       .  A
C798        O811   1.274       .  A
C798        C895   1.477       .  S
O799        C812   1.276       .  A
O799       Cd806   2.079       .  S
O800        C818   1.275       .  A
O800       Cd809   2.062       .  S
O801        C815   1.275       .  A
O801       Cd805   2.071       .  S
O802        C813   1.274       .  A
O802       Cd805   2.061       .  S
Zn803       O814   2.034       .  S
Zn803       O816   2.018       .  S
Zn803       O808   1.951       .  S
O804        C815   1.275       .  A
O804       Cd809   2.074       .  S
Cd805       O807   2.068       .  S
Cd805       O808   1.998       .  S
Cd806       O810   2.066       .  S
Cd806       O819   2.078       .  S
Cd806       O808   2.007       .  S
O807        C817   1.275       .  A
O808       Cd809   1.996       .  S
Cd809       O811   2.064       .  S
O810        C817   1.275       .  A
C812        O816   1.275       .  A
C812        C855   1.480       .  S
C813        C878   1.479       .  S
C815        C885   1.484       .  S
C817        C845   1.478       .  S
C818        O819   1.276       .  A
C818        C868   1.479       .  S
C820       C1172   1.535       .  S
C820        C826   1.536   1_565  S
C820        C975   1.527       .  S
C821       C1171   1.535       .  S
C821        H828   1.085       .  S
C821        C822   1.367       .  D
C822       C1174   1.546       .  S
C822        C865   1.495       .  S
C823       C1173   1.546       .  S
C823        C827   1.539   1_565  S
C823        H829   1.102   1_565  S
C824        H830   1.077       .  S
C824        C825   1.371       .  D
C825        C848   1.497       .  S
C826        H831   1.086       .  S
C826        C827   1.365       .  D
C827        C858   1.490       .  S
C832        C833   1.546       .  S
C832        C838   1.541       .  S
C832        C836   1.539       .  S
C832        C908   1.530       .  S
C833        H840   1.082       .  S
C833        C834   1.367       .  D
C834        C835   1.538       .  S
C834        C898   1.480       .  S
C835        C839   1.530       .  S
C835        C837   1.537       .  S
C835        H841   1.111       .  S
C836        H842   1.086       .  S
C836        C837   1.366       .  D
C837        C875   1.479       .  S
C838        H843   1.086       .  S
C838        C839   1.363       .  D
C839        C888   1.471       .  S
C844        C845   1.402       .  A
C844        C849   1.397       .  A
C844        H850   1.083       .  S
C845        C846   1.403       .  A
C846        C847   1.396       .  A
C846        H851   1.083       .  S
C847        C848   1.410       .  A
C847        H852   1.081       .  S
C848        C849   1.408       .  A
C849        H853   1.076       .  S
C854        C855   1.405       .  A
C854        C859   1.400       .  A
C854        H860   1.083       .  S
C855        C856   1.404       .  A
C856        C857   1.397       .  A
C856        H861   1.083       .  S
C857        C858   1.406       .  A
C858        C859   1.407       .  A
C859        H863   1.082       .  S
C864        C865   1.410       .  A
C864        C869   1.401       .  A
C864        H870   1.081       .  S
C865        C866   1.405       .  A
C866        C867   1.394       .  A
C866        H871   1.076       .  S
C867        C868   1.402       .  A
C867        H872   1.083       .  S
C868        C869   1.404       .  A
C869        H873   1.083       .  S
C874        C875   1.402       .  A
C874        C879   1.397       .  A
C874        H880   1.083       .  S
C875        C876   1.404       .  A
C876        C877   1.402       .  A
C876        H881   1.083       .  S
C877        C878   1.406       .  A
C877        H882   1.083       .  S
C878        C879   1.405       .  A
C879        H883   1.083       .  S
C884       C1236   1.409   1_545  A
C884        C889   1.399       .  A
C884        H890   1.083   1_545  S
C885       C1235   1.409       .  A
C885        C886   1.408       .  A
C886       C1238   1.399       .  A
C886        H891   1.083       .  S
C887       C1237   1.399       .  A
C887        C888   1.400       .  A
C887        H892   1.083       .  S
C888        C889   1.399       .  A
C889        H893   1.083       .  S
C894        C895   1.405       .  A
C894        H900   1.084       .  S
C896        C897   1.400       .  A
C896        H901   1.083       .  S
C897        C898   1.403       .  A
C897        H902   1.083       .  S
C898        C899   1.404       .  A
C899        H903   1.083       .  S
C904        C905   1.407       .  A
C904        C909   1.398       .  A
C904        H910   1.084       .  S
C905        C906   1.409       .  A
C906        C907   1.398       .  A
C906        H911   1.077       .  S
C907        C908   1.408       .  A
C907        H912   1.084       .  S
C908        C909   1.409       .  A
C909        H913   1.077       .  S
C914        C915   1.406       .  A
C914        C919   1.400       .  A
C914        H920   1.083       .  S
C915        C916   1.403       .  A
C916        C917   1.398       .  A
C916        H921   1.083       .  S
C917        C918   1.404       .  A
C917        H922   1.083       .  S
C918        C919   1.403       .  A
C919        H923   1.083       .  S
C924        C925   1.407       .  A
C924        C929   1.400       .  A
C924        H930   1.083       .  S
C925        C926   1.408       .  A
C926        C927   1.398       .  A
C926        H931   1.083       .  S
C927        C928   1.400       .  A
C927        H932   1.083       .  S
C928        C929   1.401       .  A
C929        H933   1.082       .  S
C934        C935   1.405       .  A
C934        C939   1.398       .  A
C934        H940   1.083       .  S
C935        C936   1.405       .  A
C936        C937   1.398       .  A
C936        H941   1.083       .  S
C937        C938   1.401       .  A
C937        H942   1.082       .  S
C938        C939   1.403       .  A
C939        H943   1.083       .  S
C944        C945   1.405       .  A
C944        C949   1.398       .  A
C944        H950   1.083       .  S
C945        C946   1.403       .  A
C946        C947   1.397       .  A
C946        H951   1.083       .  S
C947        C948   1.408       .  A
C947        H952   1.082       .  S
C948        C949   1.405       .  A
C949        H953   1.082       .  S
C954        C955   1.402       .  A
C954        C959   1.399       .  A
C954        H960   1.083       .  S
C955        C956   1.402       .  A
C956        C957   1.394       .  A
C956        H961   1.083       .  S
C957        C958   1.408       .  A
C957        H962   1.076       .  S
C958        C959   1.413       .  A
C959        H963   1.079       .  S
C964        C965   1.403       .  A
C964        C969   1.398       .  A
C964        H970   1.083       .  S
C965        C966   1.404       .  A
C966        C967   1.399       .  A
C966        H971   1.083       .  S
C967        C968   1.407       .  A
C967        H972   1.082       .  S
C968        C969   1.406       .  A
C969        H973   1.079       .  S
C974        C975   1.406   1_545  A
C974        C979   1.396   1_554  A
C974        H980   1.084       .  S
C976        C977   1.396   1_554  A
C976        H981   1.076       .  S
C977        H982   1.084       .  S
C978        C979   1.409       .  A
C979        H983   1.076       .  S
C984        C985   1.405       .  A
C984        C989   1.394       .  A
C984        H990   1.084       .  S
C985        C986   1.409       .  A
C986        C987   1.397       .  A
C986        H991   1.076       .  S
C987        C988   1.406       .  A
C987        H992   1.084       .  S
C988        C989   1.410       .  A
C989        H993   1.076       .  S
C994        C995   1.403       .  A
C994        C999   1.398       .  A
C994       H1000   1.083       .  S
C995        C996   1.404       .  A
C996        C997   1.397       .  A
C996       H1001   1.083       .  S
C997        C998   1.406       .  A
C997       H1002   1.082       .  S
C998        C999   1.408       .  A
C1004      C1005   1.404       .  A
C1004      C1009   1.398       .  A
C1004      H1010   1.083       .  S
C1005      C1006   1.402       .  A
C1006      C1007   1.397       .  A
C1006      H1011   1.083       .  S
C1007      C1008   1.406       .  A
C1007      H1012   1.077       .  S
C1008      C1009   1.409       .  A
C1009      H1013   1.082       .  S
C1014      C1015   1.403       .  A
C1014      C1019   1.394       .  A
C1014      H1020   1.083       .  S
C1015      C1016   1.403       .  A
C1016      C1017   1.400       .  A
C1016      H1021   1.083       .  S
C1017      C1018   1.412       .  A
C1017      H1022   1.080       .  S
C1018      C1019   1.407       .  A
C1019      H1023   1.076       .  S
C1024      C1025   1.408       .  A
C1024      C1029   1.401       .  A
C1024      H1030   1.083       .  S
C1025      C1026   1.409       .  A
C1026      C1027   1.398       .  A
C1026      H1031   1.083       .  S
C1027      C1028   1.399       .  A
C1027      H1032   1.083       .  S
C1028      C1029   1.401       .  A
C1029      H1033   1.083       .  S
C1034      C1039   1.398       .  A
C1034      H1040   1.083       .  S
C1035      C1036   1.403       .  A
C1036      H1041   1.083       .  S
C1037      C1038   1.403       .  A
C1037      H1042   1.083       .  S
C1038      C1039   1.401       .  A
C1039      H1043   1.083       .  S
C1044      C1396   1.406       .  A
C1044      C1049   1.398       .  A
C1044      H1050   1.083       .  S
C1045      C1395   1.406   1_545  A
C1045      C1046   1.405       .  A
C1046      C1398   1.399   1_545  A
C1046      H1051   1.083       .  S
C1047      C1397   1.399       .  A
C1047      C1048   1.404       .  A
C1047      H1052   1.083       .  S
C1048      C1049   1.401       .  A
C1049      H1053   1.082       .  S
O1054      C1070   1.276       .  A
O1054     Zn1060   2.036       .  S
C1055      O1071   1.276       .  A
C1055      O1068   1.275       .  A
C1055      C1396   1.478       .  S
O1056      C1069   1.275       .  A
O1056     Cd1063   2.064       .  S
O1057      C1075   1.273       .  A
O1057     Cd1066   2.058       .  S
O1058      C1072   1.275       .  A
O1058     Cd1062   2.069       .  S
O1059      C1070   1.273       .  A
O1059     Cd1062   2.062       .  S
Zn1060     O1071   2.032       .  S
Zn1060     O1073   2.025       .  S
Zn1060     O1065   1.951       .  S
O1061      C1072   1.274       .  A
O1061     Cd1066   2.065       .  S
Cd1062     O1064   2.065       .  S
Cd1062     O1065   1.997       .  S
Cd1063     O1067   2.077       .  S
Cd1063     O1076   2.079       .  S
Cd1063     O1065   2.007       .  S
O1064      C1074   1.275       .  A
O1065     Cd1066   1.995       .  S
Cd1066     O1068   2.065       .  S
O1067      C1074   1.276       .  A
C1069      O1073   1.276       .  A
C1069      C1356   1.477       .  S
C1070      C1376   1.485       .  S
C1072      C1386   1.472       .  S
C1074      C1346   1.477       .  S
C1075      O1076   1.275       .  A
C1075      C1366   1.481       .  S
C1077      C1078   1.539       .  S
C1077      C1083   1.542       .  S
C1077      C1081   1.540       .  S
C1077      C1336   1.524       .  S
C1078      H1085   1.086       .  S
C1078      C1079   1.364       .  D
C1079      C1080   1.537       .  S
C1079      C1399   1.477       .  S
C1080      C1084   1.536       .  S
C1080      C1082   1.532       .  S
C1080      H1086   1.111       .  S
C1081      H1087   1.086       .  S
C1081      C1082   1.362       .  D
C1082      C1379   1.472       .  S
C1083      H1088   1.081       .  S
C1083      C1084   1.364       .  D
C1084      C1389   1.473       .  S
C1089      C1095   1.542       .  S
C1089      C1329   1.528       .  S
C1090      H1097   1.084       .  S
C1090      C1091   1.370       .  D
C1091      C1369   1.499       .  S
C1092      C1096   1.542       .  S
C1092      H1098   1.102       .  S
C1093      H1099   1.085       .  S
C1093      C1094   1.365       .  D
C1094      C1349   1.491       .  S
C1095      H1100   1.079       .  S
C1095      C1096   1.367       .  D
C1096      C1359   1.493       .  S
O1101      C1117   1.276       .  A
C1102      O1118   1.277       .  A
C1102      O1115   1.275       .  A
C1102      C1266   1.476       .  S
O1103      C1116   1.275       .  A
O1103     Cd1110   2.070   1_565  S
O1104      C1122   1.273       .  A
O1104     Cd1113   2.054       .  S
O1105      C1119   1.275       .  A
O1106      C1117   1.274       .  A
O1106     Cd1109   2.063       .  S
Zn1107     O1120   2.027       .  S
Zn1107     O1112   1.952       .  S
O1108      C1119   1.275       .  A
Cd1109     O1111   2.065       .  S
Cd1110     O1112   2.006   1_545  S
O1111      C1121   1.274       .  A
Cd1113     O1115   2.069       .  S
O1114      C1121   1.277       .  A
C1116      O1120   1.276       .  A
C1116      C1316   1.477       .  S
C1117      C1276   1.484       .  S
C1119      C1286   1.475       .  S
C1121      C1296   1.477       .  S
C1122      O1123   1.275       .  A
C1122      C1306   1.480       .  S
C1124      C1125   1.546       .  S
C1124      C1130   1.538       .  S
C1124      C1128   1.541       .  S
C1124      C1256   1.530       .  S
C1125      H1132   1.082       .  S
C1125      C1126   1.367       .  D
C1126      C1127   1.538       .  S
C1126      C1269   1.480       .  S
C1127      C1131   1.536       .  S
C1127      C1129   1.533       .  S
C1127      H1133   1.111       .  S
C1128      H1134   1.086       .  S
C1128      C1129   1.362       .  D
C1129      C1279   1.473       .  S
C1130      H1135   1.086       .  S
C1130      C1131   1.365       .  D
C1131      C1289   1.476       .  S
C1136      C1137   1.537       .  S
C1136      C1142   1.537       .  S
C1136      C1140   1.541       .  S
C1136      C1339   1.528       .  S
C1137      H1144   1.083       .  S
C1137      C1138   1.372       .  D
C1138      C1139   1.547       .  S
C1138      C1309   1.501       .  S
C1139      C1143   1.541       .  S
C1139      C1141   1.537       .  S
C1139      H1145   1.102       .  S
C1140      H1146   1.079       .  S
C1140      C1141   1.363       .  D
C1141      C1299   1.488       .  S
C1142      H1147   1.086       .  S
C1142      C1143   1.367       .  D
C1143      C1319   1.490       .  S
O1148      C1164   1.278       .  A
O1148     Zn1154   2.045       .  S
C1149      O1165   1.276       .  A
C1149      O1162   1.274       .  A
C1149      C1246   1.477       .  S
O1150      C1163   1.276       .  A
O1150     Cd1157   2.078       .  S
O1151      C1169   1.275       .  A
O1151     Cd1160   2.062       .  S
O1152      C1166   1.275       .  A
O1152     Cd1156   2.071       .  S
O1153      C1164   1.274       .  A
O1153     Cd1156   2.061       .  S
Zn1154     O1165   2.034       .  S
Zn1154     O1167   2.018       .  S
Zn1154     O1159   1.951       .  S
O1155      C1166   1.275       .  A
O1155     Cd1160   2.074       .  S
Cd1156     O1158   2.068       .  S
Cd1156     O1159   1.998       .  S
Cd1157     O1161   2.066       .  S
Cd1157     O1170   2.078       .  S
Cd1157     O1159   2.007       .  S
O1158      C1168   1.275       .  A
O1159     Cd1160   1.996       .  S
Cd1160     O1162   2.064       .  S
O1161      C1168   1.275       .  A
C1163      O1167   1.275       .  A
C1163      C1206   1.480       .  S
C1164      C1229   1.479       .  S
C1166      C1236   1.484       .  S
C1168      C1196   1.478       .  S
C1169      O1170   1.276       .  A
C1169      C1219   1.479       .  S
C1171      C1177   1.536       .  S
C1171      C1326   1.527       .  S
C1172      H1179   1.085       .  S
C1172      C1173   1.367       .  D
C1173      C1216   1.495       .  S
C1174      C1178   1.539       .  S
C1174      H1180   1.102       .  S
C1175      H1181   1.077       .  S
C1175      C1176   1.371       .  D
C1176      C1199   1.497       .  S
C1177      H1182   1.086       .  S
C1177      C1178   1.365       .  D
C1178      C1209   1.490       .  S
C1183      C1184   1.546       .  S
C1183      C1189   1.541       .  S
C1183      C1187   1.539       .  S
C1183      C1259   1.530       .  S
C1184      H1191   1.082       .  S
C1184      C1185   1.367       .  D
C1185      C1186   1.538       .  S
C1185      C1249   1.480       .  S
C1186      C1190   1.530       .  S
C1186      C1188   1.537       .  S
C1186      H1192   1.111       .  S
C1187      H1193   1.086       .  S
C1187      C1188   1.366       .  D
C1188      C1226   1.479       .  S
C1189      H1194   1.086       .  S
C1189      C1190   1.363       .  D
C1190      C1239   1.471       .  S
C1195      C1196   1.402       .  A
C1195      C1200   1.397       .  A
C1195      H1201   1.083       .  S
C1196      C1197   1.403       .  A
C1197      C1198   1.396       .  A
C1197      H1202   1.083       .  S
C1198      C1199   1.410       .  A
C1198      H1203   1.081       .  S
C1199      C1200   1.408       .  A
C1200      H1204   1.076       .  S
C1205      C1206   1.405       .  A
C1205      C1210   1.400       .  A
C1205      H1211   1.083       .  S
C1206      C1207   1.404       .  A
C1207      C1208   1.397       .  A
C1207      H1212   1.083       .  S
C1208      C1209   1.406       .  A
C1209      C1210   1.407       .  A
C1210      H1214   1.082       .  S
C1215      C1216   1.410       .  A
C1215      C1220   1.401       .  A
C1215      H1221   1.081       .  S
C1216      C1217   1.405       .  A
C1217      C1218   1.394       .  A
C1217      H1222   1.076       .  S
C1218      C1219   1.402       .  A
C1218      H1223   1.083       .  S
C1219      C1220   1.404       .  A
C1220      H1224   1.083       .  S
C1225      C1226   1.402       .  A
C1225      C1230   1.397       .  A
C1225      H1231   1.083       .  S
C1226      C1227   1.404       .  A
C1227      C1228   1.402       .  A
C1227      H1232   1.083       .  S
C1228      C1229   1.406       .  A
C1228      H1233   1.083       .  S
C1229      C1230   1.405       .  A
C1230      H1234   1.083       .  S
C1235      C1240   1.399       .  A
C1235      H1241   1.083       .  S
C1236      C1237   1.408   1_565  A
C1237      H1242   1.083   1_545  S
C1238      C1239   1.400       .  A
C1238      H1243   1.083       .  S
C1239      C1240   1.399       .  A
C1240      H1244   1.083       .  S
C1245      C1246   1.405       .  A
C1245      H1251   1.084       .  S
C1247      C1248   1.400       .  A
C1247      H1252   1.083       .  S
C1248      C1249   1.403       .  A
C1248      H1253   1.083       .  S
C1249      C1250   1.404       .  A
C1250      H1254   1.083       .  S
C1255      C1256   1.407       .  A
C1255      C1260   1.398       .  A
C1255      H1261   1.084       .  S
C1256      C1257   1.409       .  A
C1257      C1258   1.398       .  A
C1257      H1262   1.077       .  S
C1258      C1259   1.408       .  A
C1258      H1263   1.084       .  S
C1259      C1260   1.409       .  A
C1260      H1264   1.077       .  S
C1265      C1266   1.406       .  A
C1265      C1270   1.400       .  A
C1265      H1271   1.083       .  S
C1266      C1267   1.403       .  A
C1267      C1268   1.398       .  A
C1267      H1272   1.083       .  S
C1268      C1269   1.404       .  A
C1268      H1273   1.083       .  S
C1269      C1270   1.403       .  A
C1270      H1274   1.083       .  S
C1275      C1276   1.407       .  A
C1275      C1280   1.400       .  A
C1275      H1281   1.083       .  S
C1276      C1277   1.408       .  A
C1277      C1278   1.398       .  A
C1277      H1282   1.083       .  S
C1278      C1279   1.400       .  A
C1278      H1283   1.083       .  S
C1279      C1280   1.401       .  A
C1280      H1284   1.082       .  S
C1285      C1286   1.405       .  A
C1285      C1290   1.398       .  A
C1285      H1291   1.083       .  S
C1286      C1287   1.405       .  A
C1287      C1288   1.398       .  A
C1287      H1292   1.083       .  S
C1288      C1289   1.401       .  A
C1288      H1293   1.082       .  S
C1289      C1290   1.403       .  A
C1290      H1294   1.083       .  S
C1295      C1296   1.405       .  A
C1295      C1300   1.398       .  A
C1295      H1301   1.083       .  S
C1296      C1297   1.403       .  A
C1297      C1298   1.397       .  A
C1297      H1302   1.083       .  S
C1298      C1299   1.408       .  A
C1298      H1303   1.082       .  S
C1299      C1300   1.405       .  A
C1300      H1304   1.082       .  S
C1305      C1306   1.402       .  A
C1305      C1310   1.399       .  A
C1305      H1311   1.083       .  S
C1306      C1307   1.402       .  A
C1307      C1308   1.394       .  A
C1307      H1312   1.083       .  S
C1308      C1309   1.408       .  A
C1308      H1313   1.076       .  S
C1309      C1310   1.413       .  A
C1310      H1314   1.079       .  S
C1315      C1316   1.403       .  A
C1315      C1320   1.398       .  A
C1315      H1321   1.083       .  S
C1316      C1317   1.404       .  A
C1317      C1318   1.399       .  A
C1317      H1322   1.083       .  S
C1318      C1319   1.407       .  A
C1318      H1323   1.082       .  S
C1319      C1320   1.406       .  A
C1320      H1324   1.079       .  S
C1325      C1326   1.406       .  A
C1325      C1330   1.396   1_554  A
C1325      H1331   1.084       .  S
C1327      C1328   1.396   1_554  A
C1327      H1332   1.076       .  S
C1328      H1333   1.084       .  S
C1329      C1330   1.409       .  A
C1330      H1334   1.076       .  S
C1335      C1336   1.405       .  A
C1335      C1340   1.394       .  A
C1335      H1341   1.084       .  S
C1336      C1337   1.409       .  A
C1337      C1338   1.397       .  A
C1337      H1342   1.076       .  S
C1338      C1339   1.406       .  A
C1338      H1343   1.084       .  S
C1339      C1340   1.410       .  A
C1340      H1344   1.076       .  S
C1345      C1346   1.403       .  A
C1345      C1350   1.398       .  A
C1345      H1351   1.083       .  S
C1346      C1347   1.404       .  A
C1347      C1348   1.397       .  A
C1347      H1352   1.083       .  S
C1348      C1349   1.406       .  A
C1348      H1353   1.082       .  S
C1349      C1350   1.408       .  A
C1355      C1356   1.404       .  A
C1355      C1360   1.398       .  A
C1355      H1361   1.083       .  S
C1356      C1357   1.402       .  A
C1357      C1358   1.397       .  A
C1357      H1362   1.083       .  S
C1358      C1359   1.406       .  A
C1358      H1363   1.077       .  S
C1359      C1360   1.409       .  A
C1360      H1364   1.082       .  S
C1365      C1366   1.403       .  A
C1365      C1370   1.394       .  A
C1365      H1371   1.083       .  S
C1366      C1367   1.403       .  A
C1367      C1368   1.400       .  A
C1367      H1372   1.083       .  S
C1368      C1369   1.412       .  A
C1368      H1373   1.080       .  S
C1369      C1370   1.407       .  A
C1370      H1374   1.076       .  S
C1375      C1376   1.408       .  A
C1375      C1380   1.401       .  A
C1375      H1381   1.083       .  S
C1376      C1377   1.409       .  A
C1377      C1378   1.398       .  A
C1377      H1382   1.083       .  S
C1378      C1379   1.399       .  A
C1378      H1383   1.083       .  S
C1379      C1380   1.401       .  A
C1380      H1384   1.083       .  S
C1385      C1390   1.398       .  A
C1385      H1391   1.083       .  S
C1386      C1387   1.403       .  A
C1387      H1392   1.083       .  S
C1388      C1389   1.403       .  A
C1388      H1393   1.083       .  S
C1389      C1390   1.401       .  A
C1390      H1394   1.083       .  S
C1395      C1400   1.398       .  A
C1395      H1401   1.083       .  S
C1396      C1397   1.405       .  A
C1397      H1402   1.083       .  S
C1398      C1399   1.404       .  A
C1398      H1403   1.083       .  S
C1399      C1400   1.401       .  A
C1400      H1404   1.082       .  S
