geometry optimzed in LAMMPS
_audit_creation_date              2020-11-30 
_audit_creation_method            'lammps2cif' 
_symmetry_space_group_name_H-M    'P1' 
_symmetry_Int_Tables_number       1 
_symmetry_cell_setting            triclinic 
loop_ 
_symmetry_equiv_pos_as_xyz 
  x,y,z 
_cell_length_a                    35.34392796 
_cell_length_b                    29.704399087031785 
_cell_length_c                    23.857580190877567 
_cell_angle_alpha                 89.02769598986053 
_cell_angle_beta                  89.95259318287546 
_cell_angle_gamma                 90.98514424433405 
loop_ 
_atom_site_label 
_atom_site_type_symbol 
_atom_site_fract_x 
_atom_site_fract_y 
_atom_site_fract_z 
_atom_site_charge 
C1          C  0.03100887  0.34303653  0.16383884     0.88800
C2          C  0.00648275  0.34339290  0.11143608    -0.51500
C3          C  0.98188175  0.37802731  0.10850831     0.11700
C4          C  0.98391109  0.40965887  0.15976965     0.22700
C5          C  0.05068325  0.38935342  0.16451306    -0.52200
C6          C  0.02632174  0.42456580  0.16245072     0.11800
C7          C  0.00342849  0.34293127  0.21290445    -0.51700
C8          C  0.97856190  0.37761470  0.21165225     0.12400
H9          H  0.00910098  0.31883862  0.07837533     0.16900
H10         H  0.96393430  0.43809873  0.15797641     0.02600
H11         H  0.08122659  0.39391916  0.16644036     0.17200
H12         H  0.00391543  0.31781877  0.24656587     0.17000
C13         C  0.58269325  0.18303462  0.66295270     0.88800
C14         C  0.60669510  0.18196363  0.60959223    -0.51500
C15         C  0.62753225  0.14394938  0.60479196     0.11700
C16         C  0.62294105  0.11049765  0.65492705     0.22700
C17         C  0.55888987  0.13932199  0.66236717    -0.52200
C18         C  0.57992339  0.10135283  0.65834917     0.11800
C19         C  0.61050187  0.17642193  0.71137584    -0.51700
C20         C  0.63150012  0.13825467  0.70789917     0.12400
H21         H  0.60565782  0.20784843  0.57693967     0.16900
H22         H  0.63983382  0.07945406  0.65155590     0.02600
H23         H  0.52823022  0.13843099  0.66557782     0.17200
H24         H  0.61192855  0.19860775  0.74706393     0.17000
O25         O  0.66407172  0.16421213  0.41576036    -0.76200
C26         C  0.73850057  0.21434327  0.27214227     0.84800
O27         O  0.57946486  0.18081242  0.26883505    -0.77300
O28         O  0.67798369  0.12368337  0.14865321    -0.78800
O29         O  0.71850696  0.04200828  0.31990070    -0.78600
O30         O  0.66378845  0.08917407  0.42111051    -0.77200
Zn31       Zn  0.66635734  0.18041819  0.33238000     1.55700
O32         O  0.73755067  0.07646370  0.24041909    -0.78600
Cd33       Cd  0.66689951  0.07188280  0.33678523     1.59700
Cd34       Cd  0.60964470  0.12305445  0.25004645     1.59600
O35         O  0.62322124  0.02534281  0.32314276    -0.78600
O36         O  0.66064045  0.12655403  0.28738117    -1.89100
Cd37       Cd  0.70074994  0.12853316  0.22819341     1.59900
O38         O  0.58034755  0.06369582  0.27374427    -0.78600
O39         O  0.73495335  0.18564627  0.23341133    -0.77200
C40         C  0.58976199  0.21660035  0.29402337     0.85300
C41         C  0.66240192  0.12749585  0.44424363     0.85000
O42         O  0.71556732  0.21526674  0.31349413    -0.76200
C43         C  0.74181680  0.04722979  0.27932989     0.85800
O44         O  0.62202037  0.22086965  0.31733713    -0.76300
C45         C  0.59087028  0.02812340  0.29977905     0.85900
C46         C  0.64420058  0.12055179  0.13046109     0.86200
O47         O  0.61551055  0.12045457  0.16293497    -0.78700
C48         C  0.66586502  0.10735350  0.85567190     0.88800
C49         C  0.68414876  0.06336912  0.83798085    -0.51500
C50         C  0.70086870  0.06591414  0.78632240     0.11700
C51         C  0.69655492  0.11194121  0.75630034     0.22700
C52         C  0.69752720  0.14299028  0.85009049    -0.52200
C53         C  0.71379872  0.14517276  0.79838905     0.11800
C54         C  0.63777977  0.11899377  0.80927541    -0.51700
C55         C  0.65364001  0.12172007  0.75690649     0.12400
H56         H  0.68744312  0.03472522  0.86639543     0.16900
H57         H  0.70980629  0.11405023  0.71406207     0.02600
H58         H  0.70753306  0.16317174  0.88488122     0.17200
H59         H  0.60820237  0.12595328  0.81724550     0.17000
O60         O  0.94355882  0.33931419  0.92805372    -0.76200
C61         C  0.86906903  0.27550162  0.79354659     0.84800
O62         O  0.02390163  0.31346446  0.77309527    -0.77300
O63         O  0.92153891  0.36273546  0.65615226    -0.78800
O64         O  0.88055860  0.45195272  0.81542793    -0.78600
O65         O  0.93676947  0.41379678  0.92103092    -0.77200
Zn66       Zn  0.94055286  0.31613660  0.84703135     1.55700
O67         O  0.86081713  0.41046323  0.74371194    -0.78600
Cd68       Cd  0.93305321  0.42451540  0.83501642     1.59700
Cd69       Cd  0.99180243  0.37037262  0.75379788     1.59600
O70         O  0.97565937  0.47083662  0.81510652    -0.78600
O71         O  0.94181068  0.36714906  0.79414294    -1.89100
Cd72       Cd  0.90076988  0.36079196  0.73714431     1.59900
O73         O  0.01996033  0.43066446  0.77237976    -0.78600
O74         O  0.87084617  0.30198331  0.75119132    -0.77200
C75         C  0.01621826  0.27866756  0.80345105     0.85300
C76         C  0.94186191  0.37815416  0.95025888     0.85000
O77         O  0.89213794  0.27831011  0.83464275    -0.76200
C78         C  0.85637008  0.44257176  0.77753977     0.85800
O79         O  0.98591050  0.27543043  0.83262859    -0.76300
C80         C  0.00842463  0.46723108  0.79344118     0.85900
C81         C  0.95473300  0.36761885  0.63600972     0.86200
O82         O  0.98397339  0.37116098  0.66699186    -0.78700
C83         C  0.93461742  0.38189121  0.35843665     0.88800
C84         C  0.91213064  0.42445035  0.34587814    -0.51500
C85         C  0.89821500  0.42657006  0.29260358     0.11700
C86         C  0.90878010  0.38641732  0.25615379     0.22700
C87         C  0.90760977  0.34292183  0.34375774    -0.52200
C88         C  0.89360539  0.34544201  0.29058044     0.11800
C89         C  0.96566355  0.38143433  0.31394351    -0.51700
C90         C  0.95248544  0.38388647  0.25996093     0.12400
H91         H  0.90485383  0.44855494  0.37777780     0.16900
H92         H  0.89752618  0.38823857  0.21271530     0.02600
H93         H  0.89820458  0.31741483  0.37414360     0.17200
H94         H  0.99545466  0.37819962  0.32412709     0.17000
C95         C  0.52348901  0.32881163  0.30344871     0.88800
C96         C  0.49541904  0.33525359  0.25549991    -0.51500
C97         C  0.47538876  0.37410504  0.25816380     0.11700
C98         C  0.48519147  0.40285644  0.30995520     0.22700
C99         C  0.54840381  0.37168279  0.30224876    -0.52200
C100        C  0.52845069  0.41052316  0.30556941     0.11800
C101        C  0.50009543  0.33166195  0.35714875    -0.51700
C102        C  0.48022161  0.37044514  0.36115527     0.12400
H103        H  0.49295325  0.31224337  0.22071503     0.16900
H104        H  0.46903991  0.43450191  0.31266325     0.02600
H105        H  0.57904292  0.37135409  0.29876381     0.17200
H106        H  0.50063650  0.30620690  0.39036970     0.17000
C107        C  0.07710642  0.08058169  0.79610479     0.88800
C108        C  0.10136187  0.08240562  0.84901159    -0.51500
C109        C  0.12372154  0.12010082  0.85229095     0.11700
C110        C  0.12012994  0.15267654  0.80125106     0.22700
C111        C  0.05488708  0.12447316  0.79559266    -0.52200
C112        C  0.07714530  0.16240994  0.79847667     0.11800
C113        C  0.10492564  0.08551267  0.74734622    -0.51700
C114        C  0.12773667  0.12307616  0.74942580     0.12400
H115        H  0.09972508  0.05698482  0.88231700     0.16900
H116        H  0.13832738  0.18344737  0.80355564     0.02600
H117        H  0.02418029  0.12542944  0.79399266     0.17200
H118        H  0.10613077  0.06163100  0.71339812     0.17000
O119        O  0.16182730  0.09692494  0.03925360    -0.76200
C120        C  0.23810084  0.04816419  0.17856976     0.84800
O121        O  0.07838721  0.07917108  0.18994064    -0.77300
O122        O  0.18365011  0.13483844  0.30593106    -0.78800
O123        O  0.22252684  0.21933693  0.13274788    -0.78600
O124        O  0.16485459  0.17200796  0.03491607    -0.77200
Zn125      Zn  0.16444142  0.07934737  0.12263963     1.55700
O126        O  0.24079236  0.18772961  0.21354629    -0.78600
Cd127      Cd  0.17033748  0.18798651  0.11895026     1.59700
Cd128      Cd  0.11270982  0.13550126  0.20895446     1.59600
O129        O  0.12951280  0.23433603  0.13689550    -0.78600
O130        O  0.16249741  0.13319362  0.16819102    -1.89100
Cd131      Cd  0.20397248  0.13368011  0.22491177     1.59900
O132        O  0.08707056  0.19661397  0.19028134    -0.78600
O133        O  0.23705985  0.07832631  0.21564295    -0.77200
C134        C  0.08640451  0.04327858  0.16391033     0.85300
C135        C  0.16150195  0.13399866  0.01134621     0.85000
O136        O  0.21322502  0.04494433  0.13988307    -0.76200
C137        C  0.24540342  0.21637560  0.17384456     0.85800
O138        O  0.11814375  0.03876730  0.13912545    -0.76300
C139        C  0.09850905  0.23213035  0.16405605     0.85900
C140        C  0.15043453  0.13528296  0.32644990     0.86200
O141        O  0.12087330  0.13499831  0.29582202    -0.78700
C142        C  0.17246921  0.13977091  0.60407111     0.88800
C143        C  0.19551983  0.18187343  0.61968908    -0.51500
C144        C  0.20930784  0.18055091  0.67312786     0.11700
C145        C  0.19781153  0.13767654  0.70668178     0.22700
C146        C  0.19889269  0.10046116  0.61642570    -0.52200
C147        C  0.21259858  0.09955881  0.66980665     0.11800
C148        C  0.14114495  0.13540248  0.64803914    -0.51700
C149        C  0.15403963  0.13432209  0.70214086     0.12400
H150        H  0.20334071  0.20822101  0.58949267     0.16900
H151        H  0.20882252  0.13660977  0.75028636     0.02600
H152        H  0.20816023  0.07734282  0.58452855     0.17200
H153        H  0.11139065  0.13179789  0.63736234     0.17000
O154        O  0.38969406  0.30374367  0.65215710    -0.76200
C155        C  0.44516608  0.38796457  0.52125484     0.84800
O156        O  0.52647140  0.33083799  0.69730866    -0.77300
O157        O  0.48633333  0.48784575  0.64154621    -0.78800
O158        O  0.37118941  0.44502402  0.72522602    -0.78600
O159        O  0.37051854  0.33559966  0.73115084    -0.77200
Zn160      Zn  0.44014921  0.33527603  0.63341524     1.55700
O161        O  0.39065074  0.47705046  0.64465811    -0.78600
Cd162      Cd  0.40644324  0.39080712  0.73697703     1.59700
Cd163      Cd  0.49773991  0.39005775  0.71528636     1.59600
O164        O  0.42948868  0.39377172  0.81651457    -0.78600
O165        O  0.44663190  0.38928193  0.67801261    -1.89100
Cd166      Cd  0.44117413  0.44388361  0.62828362     1.59900
O167        O  0.49198706  0.39310619  0.80239809    -0.78600
O168        O  0.44390012  0.42634665  0.54419327    -0.77200
C169        C  0.51538443  0.29516982  0.67254085     0.85300
C170        C  0.36640994  0.30664692  0.69284427     0.85000
O171        O  0.44322794  0.35131012  0.54988325    -0.76200
C172        C  0.36751324  0.47392776  0.68572441     0.85800
O173        O  0.48304511  0.29206363  0.64911081    -0.76300
C174        C  0.46332559  0.39461061  0.83480649     0.85900
C175        C  0.51867378  0.48381315  0.66453509     0.86200
O176        O  0.52847717  0.44800629  0.69073687    -0.78700
C177        C  0.44033877  0.39846377  0.10966968     0.88800
C178        C  0.41396037  0.35714802  0.11596905    -0.51500
C179        C  0.39729162  0.35307890  0.16732138     0.11700
C180        C  0.40885028  0.39029147  0.20821558     0.22700
C181        C  0.41574108  0.43839857  0.12484320    -0.52200
C182        C  0.39858412  0.43381691  0.17595958     0.11800
C183        C  0.46890779  0.39389887  0.15732143    -0.51700
C184        C  0.45263971  0.38933907  0.20928031     0.12400
H185        H  0.40734207  0.33460202  0.08177646     0.16900
H186        H  0.39527672  0.38665148  0.25011756     0.02600
H187        H  0.40897159  0.46519990  0.09509522     0.17200
H188        H  0.49919818  0.39159401  0.15041632     0.17000
C189        C  0.46888889  0.39763859  0.89442154    -0.16200
C190        C  0.46937971  0.40019589  0.94491301     0.07800
C191        C  0.46497458  0.40219959  0.00380836     0.09700
C192        C  0.45664635  0.40204746  0.05293997    -0.17100
C193        C  0.33346929  0.27749082  0.69499503    -0.16200
C194        C  0.30431640  0.25564726  0.69621338     0.07800
C195        C  0.26963870  0.23111454  0.69475218     0.09700
C196        C  0.24082764  0.20929246  0.68870696    -0.17100
C197        C  0.24455321  0.07185176  0.68432822    -0.16200
C198        C  0.27305095  0.05013154  0.68899628     0.07800
C199        C  0.30694879  0.02522713  0.68905173     0.09700
C200        C  0.33532600  0.50307710  0.68730756    -0.17100
C201        C  0.15927154  0.14040401  0.54549301    -0.16200
C202        C  0.15200165  0.13965212  0.49600985     0.07800
C203        C  0.14731478  0.13800243  0.43710462     0.09700
C204        C  0.14668129  0.13651727  0.38651534    -0.17100
C205        C  0.27792223  0.24597585  0.17565714    -0.16200
C206        C  0.30591439  0.26965728  0.17818642     0.07800
C207        C  0.33886068  0.29719916  0.17977893     0.09700
C208        C  0.36639228  0.32168661  0.17735589    -0.17100
C209        C  0.36440691  0.45812812  0.18702289    -0.16200
C210        C  0.33415504  0.47637170  0.18825728     0.07800
C211        C  0.29868794  0.49761190  0.18434236     0.09700
C212        C  0.26960558  0.01817714  0.18028024    -0.17100
C213        C  0.14376752  0.12975094  0.90379265    -0.11000
C214        C  0.15475824  0.13294545  0.95165712    -0.12500
C215        C  0.45138934  0.38581494  0.46143479    -0.11000
C216        C  0.46166772  0.38133068  0.41338666    -0.12500
C217        C  0.03316857  0.00621482  0.79287214    -0.11000
C218        C  0.05300725  0.03973817  0.79360429    -0.12500
C219        C  0.04183338  0.24091451  0.80313488    -0.11000
C220        C  0.06033077  0.20681800  0.80116611    -0.12500
C221        C  0.94798127  0.37900566  0.41685281    -0.16200
C222        C  0.95492256  0.37607497  0.46637211     0.07800
C223        C  0.95888123  0.37252105  0.52535762     0.09700
C224        C  0.95887890  0.36985931  0.57596595    -0.17100
C225        C  0.82236985  0.46845371  0.77306644    -0.16200
C226        C  0.79311631  0.98882653  0.76973357     0.07800
C227        C  0.75891310  0.01301976  0.76864290     0.09700
C228        C  0.73091343  0.03552621  0.77266820    -0.17100
C229        C  0.74796133  0.17134767  0.78870191    -0.16200
C230        C  0.77731709  0.19265009  0.78795552     0.07800
C231        C  0.81125250  0.21827089  0.79168956     0.09700
C232        C  0.83895806  0.24240883  0.79466050    -0.17100
C233        C  0.56575373  0.98914341  0.30227100    -0.11000
C234        C  0.54716244  0.45445135  0.30410837    -0.12500
C235        C  0.56442045  0.25395019  0.29635689    -0.11000
C236        C  0.54525493  0.28712979  0.29947863    -0.12500
C237        C  0.65003485  0.10585758  0.91278732    -0.16200
C238        C  0.64210844  0.10774526  0.96196028     0.07800
C239        C  0.63808517  0.11210056  0.02067249     0.09700
C240        C  0.63872365  0.11629146  0.07096197    -0.17100
C241        C  0.86736342  0.45578850  0.27913993    -0.16200
C242        C  0.83879188  0.47707544  0.27490866     0.07800
C243        C  0.80421009  0.50003174  0.27542840     0.09700
C244        C  0.77497828  0.02019185  0.27761729    -0.17100
C245        C  0.77031019  0.24556566  0.26962755    -0.16200
C246        C  0.79856600  0.26924933  0.26800593     0.07800
C247        C  0.83252424  0.29558354  0.26889613     0.09700
C248        C  0.86120747  0.31794159  0.27457506    -0.17100
C249        C  0.54444034  0.02193561  0.66162129    -0.11000
C250        C  0.56253777  0.05685856  0.65948818    -0.12500
C251        C  0.55969545  0.22395452  0.66754310    -0.11000
C252        C  0.54009748  0.25692941  0.67054749    -0.12500
C253        C  0.64611447  0.13400994  0.55222487    -0.11000
C254        C  0.65631954  0.12957849  0.50411988    -0.12500
C255        C  0.05666442  0.30478983  0.16558813    -0.11000
C256        C  0.07579424  0.27160911  0.16536755    -0.12500
C257        C  0.04095083  0.47081206  0.16277251    -0.11000
C258        C  0.05939304  0.50578789  0.16331195    -0.12500
C259        C  0.94841844  0.38247359  0.00985848    -0.11000
C260        C  0.95989436  0.38422735  0.05769919    -0.12500
C261        C  0.03100887  0.84303658  0.16383883     0.88800
C262        C  0.00648275  0.84339292  0.11143605    -0.51500
C263        C  0.98188174  0.87802735  0.10850832     0.11700
C264        C  0.98391107  0.90965891  0.15976965     0.22700
C265        C  0.05068320  0.88935347  0.16451305    -0.52200
C266        C  0.02632173  0.92456585  0.16245071     0.11800
C267        C  0.00342850  0.84293128  0.21290448    -0.51700
C268        C  0.97856190  0.87761474  0.21165225     0.12400
H269        H  0.00910097  0.81883874  0.07837543     0.16900
H270        H  0.96393428  0.93809877  0.15797642     0.02600
H271        H  0.08122670  0.89391925  0.16644034     0.17200
H272        H  0.00391544  0.81781890  0.24656576     0.17000
C273        C  0.58269324  0.68303461  0.66295271     0.88800
C274        C  0.60669507  0.68196357  0.60959225    -0.51500
C275        C  0.62753221  0.64394934  0.60479195     0.11700
C276        C  0.62294102  0.61049763  0.65492707     0.22700
C277        C  0.55888981  0.63932200  0.66236722    -0.52200
C278        C  0.57992335  0.60135282  0.65834922     0.11800
C279        C  0.61050186  0.67642195  0.71137586    -0.51700
C280        C  0.63150011  0.63825467  0.70789917     0.12400
H281        H  0.60565779  0.70784845  0.57693957     0.16900
H282        H  0.63983378  0.57945403  0.65155593     0.02600
H283        H  0.52823030  0.63843101  0.66557785     0.17200
H284        H  0.61192856  0.69860772  0.74706383     0.17000
O285        O  0.66407172  0.66421209  0.41576038    -0.76200
C286        C  0.73850060  0.71434324  0.27214230     0.84800
O287        O  0.57946489  0.68081241  0.26883504    -0.77300
O288        O  0.67798373  0.62368338  0.14865320    -0.78800
O289        O  0.71850700  0.54200827  0.31990070    -0.78600
O290        O  0.66378845  0.58917403  0.42111050    -0.77200
Zn291      Zn  0.66635736  0.68041817  0.33238001     1.55700
O292        O  0.73755070  0.57646369  0.24041908    -0.78600
Cd293      Cd  0.66689954  0.57188277  0.33678522     1.59700
Cd294      Cd  0.60964473  0.62305443  0.25004645     1.59600
O295        O  0.62322128  0.52534277  0.32314274    -0.78600
O296        O  0.66064048  0.62655401  0.28738117    -1.89100
Cd297      Cd  0.70074996  0.62853315  0.22819341     1.59900
O298        O  0.58034759  0.56369579  0.27374426    -0.78600
O299        O  0.73495337  0.68564625  0.23341134    -0.77200
C300        C  0.58976202  0.71660035  0.29402335     0.85300
C301        C  0.66240191  0.62749580  0.44424363     0.85000
O302        O  0.71556735  0.71526670  0.31349416    -0.76200
C303        C  0.74181684  0.54722979  0.27932988     0.85800
O304        O  0.62202040  0.72086965  0.31733712    -0.76300
C305        C  0.59087032  0.52812337  0.29977903     0.85900
C306        C  0.64420062  0.62055179  0.13046108     0.86200
O307        O  0.61551059  0.62045457  0.16293496    -0.78700
C308        C  0.66586503  0.60735346  0.85567190     0.88800
C309        C  0.68414873  0.56336907  0.83798080    -0.51500
C310        C  0.70086867  0.56591410  0.78632236     0.11700
C311        C  0.69655492  0.61194118  0.75630032     0.22700
C312        C  0.69752721  0.64299018  0.85009047    -0.52200
C313        C  0.71379874  0.64517270  0.79838906     0.11800
C314        C  0.63777977  0.61899378  0.80927541    -0.51700
C315        C  0.65364001  0.62172008  0.75690649     0.12400
H316        H  0.68744308  0.53472515  0.86639538     0.16900
H317        H  0.70980629  0.61405021  0.71406206     0.02600
H318        H  0.70753313  0.66317171  0.88488137     0.17200
H319        H  0.60820239  0.62595330  0.81724551     0.17000
O320        O  0.94355881  0.83931422  0.92805374    -0.76200
C321        C  0.86906903  0.77550162  0.79354660     0.84800
O322        O  0.02390161  0.81346445  0.77309529    -0.77300
O323        O  0.92153892  0.86273541  0.65615225    -0.78800
O324        O  0.88055860  0.95195272  0.81542789    -0.78600
O325        O  0.93676944  0.91379680  0.92103092    -0.77200
Zn326      Zn  0.94055284  0.81613661  0.84703137     1.55700
O327        O  0.86081714  0.91046323  0.74371189    -0.78600
Cd328      Cd  0.93305320  0.92451540  0.83501642     1.59700
Cd329      Cd  0.99180242  0.87037261  0.75379788     1.59600
O330        O  0.97565937  0.97083661  0.81510653    -0.78600
O331        O  0.94181068  0.86714905  0.79414294    -1.89100
Cd332      Cd  0.90076988  0.86079195  0.73714429     1.59900
O333        O  0.01996032  0.93066445  0.77237977    -0.78600
O334        O  0.87084617  0.80198330  0.75119132    -0.77200
C335        C  0.01621823  0.77866756  0.80345108     0.85300
C336        C  0.94186189  0.87815418  0.95025890     0.85000
O337        O  0.89213793  0.77831013  0.83464278    -0.76200
C338        C  0.85637009  0.94257176  0.77753971     0.85800
O339        O  0.98591047  0.77543044  0.83262862    -0.76300
C340        C  0.00842462  0.96723107  0.79344120     0.85900
C341        C  0.95473302  0.86761881  0.63600971     0.86200
O342        O  0.98397340  0.87116095  0.66699186    -0.78700
C343        C  0.93461742  0.88189122  0.35843666     0.88800
C344        C  0.91213060  0.92445032  0.34587813    -0.51500
C345        C  0.89821495  0.92657002  0.29260359     0.11700
C346        C  0.90878009  0.88641730  0.25615378     0.22700
C347        C  0.90760981  0.84292183  0.34375771    -0.52200
C348        C  0.89360542  0.84544197  0.29058045     0.11800
C349        C  0.96566354  0.88143438  0.31394351    -0.51700
C350        C  0.95248544  0.88388650  0.25996094     0.12400
H351        H  0.90485376  0.94855494  0.37777786     0.16900
H352        H  0.89752616  0.88823853  0.21271531     0.02600
H353        H  0.89820461  0.81741471  0.37414371     0.17200
H354        H  0.99545469  0.87819970  0.32412711     0.17000
C355        C  0.52348903  0.82881164  0.30344867     0.88800
C356        C  0.49541904  0.83525356  0.25549988    -0.51500
C357        C  0.47538875  0.87410504  0.25816381     0.11700
C358        C  0.48519149  0.90285643  0.30995520     0.22700
C359        C  0.54840387  0.87168281  0.30224868    -0.52200
C360        C  0.52845070  0.91052318  0.30556936     0.11800
C361        C  0.50009548  0.83166196  0.35714874    -0.51700
C362        C  0.48022166  0.87044515  0.36115528     0.12400
H363        H  0.49295323  0.81224344  0.22071513     0.16900
H364        H  0.46903992  0.93450191  0.31266327     0.02600
H365        H  0.57904277  0.87135412  0.29876373     0.17200
H366        H  0.50063657  0.80620695  0.39036967     0.17000
C367        C  0.07710642  0.58058171  0.79610476     0.88800
C368        C  0.10136185  0.58240564  0.84901157    -0.51500
C369        C  0.12372152  0.62010085  0.85229095     0.11700
C370        C  0.12012992  0.65267656  0.80125105     0.22700
C371        C  0.05488702  0.62447318  0.79559261    -0.52200
C372        C  0.07714528  0.66240996  0.79847665     0.11800
C373        C  0.10492565  0.58551269  0.74734619    -0.51700
C374        C  0.12773668  0.62307619  0.74942579     0.12400
H375        H  0.09972507  0.55698487  0.88231695     0.16900
H376        H  0.13832736  0.68344741  0.80355564     0.02600
H377        H  0.02418045  0.62542944  0.79399262     0.17200
H378        H  0.10613079  0.56163105  0.71339812     0.17000
O379        O  0.16182727  0.59692496  0.03925361    -0.76200
C380        C  0.23810085  0.54816417  0.17856976     0.84800
O381        O  0.07838722  0.57917104  0.18994063    -0.77300
O382        O  0.18365008  0.63483843  0.30593106    -0.78800
O383        O  0.22252686  0.71933690  0.13274791    -0.78600
O384        O  0.16485455  0.67200798  0.03491611    -0.77200
Zn385      Zn  0.16444143  0.57934736  0.12263963     1.55700
O386        O  0.24079238  0.68772955  0.21354629    -0.78600
Cd387      Cd  0.17033747  0.68798651  0.11895030     1.59700
Cd388      Cd  0.11270980  0.63550125  0.20895444     1.59600
O389        O  0.12951281  0.73433606  0.13689556    -0.78600
O390        O  0.16249741  0.63319360  0.16819103    -1.89100
Cd391      Cd  0.20397247  0.63368007  0.22491179     1.59900
O392        O  0.08707052  0.69661396  0.19028127    -0.78600
O393        O  0.23705983  0.57832625  0.21564299    -0.77200
C394        C  0.08640454  0.54327853  0.16391035     0.85300
C395        C  0.16150190  0.63399869  0.01134623     0.85000
O396        O  0.21322506  0.54494433  0.13988303    -0.76200
C397        C  0.24540344  0.71637555  0.17384457     0.85800
O398        O  0.11814378  0.53876726  0.13912547    -0.76300
C399        C  0.09850903  0.73213036  0.16405604     0.85900
C400        C  0.15043450  0.63528298  0.32644990     0.86200
O401        O  0.12087327  0.63499834  0.29582200    -0.78700
C402        C  0.17246924  0.63977093  0.60407111     0.88800
C403        C  0.19551986  0.68187349  0.61968905    -0.51500
C404        C  0.20930785  0.68055096  0.67312786     0.11700
C405        C  0.19781154  0.63767659  0.70668178     0.22700
C406        C  0.19889273  0.60046117  0.61642570    -0.52200
C407        C  0.21259861  0.59955885  0.66980667     0.11800
C408        C  0.14114499  0.63540251  0.64803913    -0.51700
C409        C  0.15403965  0.63432212  0.70214086     0.12400
H410        H  0.20334071  0.70822096  0.58949276     0.16900
H411        H  0.20882253  0.63660982  0.75028637     0.02600
H412        H  0.20816026  0.57734289  0.58452864     0.17200
H413        H  0.11139063  0.63179790  0.63736231     0.17000
O414        O  0.38969406  0.80374374  0.65215707    -0.76200
C415        C  0.44516616  0.88796464  0.52125487     0.84800
O416        O  0.52647140  0.83083799  0.69730866    -0.77300
O417        O  0.48633339  0.98784578  0.64154626    -0.78800
O418        O  0.37118942  0.94502406  0.72522598    -0.78600
O419        O  0.37051856  0.83559970  0.73115084    -0.77200
Zn420      Zn  0.44014922  0.83527608  0.63341524     1.55700
O421        O  0.39065078  0.97705053  0.64465811    -0.78600
Cd422      Cd  0.40644325  0.89080717  0.73697703     1.59700
Cd423      Cd  0.49773993  0.89005775  0.71528638     1.59600
O424        O  0.42948868  0.89377177  0.81651457    -0.78600
O425        O  0.44663192  0.88928197  0.67801262    -1.89100
Cd426      Cd  0.44117418  0.94388366  0.62828365     1.59900
O427        O  0.49198706  0.89310616  0.80239811    -0.78600
O428        O  0.44390020  0.92634671  0.54419329    -0.77200
C429        C  0.51538442  0.79516981  0.67254085     0.85300
C430        C  0.36640995  0.80664698  0.69284426     0.85000
O431        O  0.44322799  0.85131018  0.54988327    -0.76200
C432        C  0.36751326  0.97392780  0.68572438     0.85800
O433        O  0.48304509  0.79206364  0.64911081    -0.76300
C434        C  0.46332559  0.89461062  0.83480650     0.85900
C435        C  0.51867384  0.98381315  0.66453513     0.86200
O436        O  0.52847721  0.94800628  0.69073691    -0.78700
C437        C  0.44033877  0.89846378  0.10966969     0.88800
C438        C  0.41396039  0.85714801  0.11596906    -0.51500
C439        C  0.39729163  0.85307887  0.16732138     0.11700
C440        C  0.40885027  0.89029145  0.20821558     0.22700
C441        C  0.41574104  0.93839858  0.12484317    -0.52200
C442        C  0.39858408  0.93381689  0.17595958     0.11800
C443        C  0.46890777  0.89389891  0.15732145    -0.51700
C444        C  0.45263969  0.88933909  0.20928033     0.12400
H445        H  0.40734210  0.83460198  0.08177644     0.16900
H446        H  0.39527670  0.88665145  0.25011755     0.02600
H447        H  0.40897157  0.96519979  0.09509532     0.17200
H448        H  0.49919819  0.89159405  0.15041636     0.17000
C449        C  0.46888888  0.89763858  0.89442156    -0.16200
C450        C  0.46937970  0.90019588  0.94491302     0.07800
C451        C  0.46497458  0.90219959  0.00380837     0.09700
C452        C  0.45664635  0.90204747  0.05293999    -0.17100
C453        C  0.33346930  0.77749088  0.69499502    -0.16200
C454        C  0.30431641  0.75564731  0.69621337     0.07800
C455        C  0.26963871  0.73111458  0.69475217     0.09700
C456        C  0.24082766  0.70929251  0.68870695    -0.17100
C457        C  0.24455324  0.57185182  0.68432826    -0.16200
C458        C  0.27305097  0.55013158  0.68899633     0.07800
C459        C  0.30694879  0.52522713  0.68905178     0.09700
C460        C  0.33532601  0.00307713  0.68730750    -0.17100
C461        C  0.15927158  0.64040402  0.54549300    -0.16200
C462        C  0.15200166  0.63965213  0.49600984     0.07800
C463        C  0.14731476  0.63800245  0.43710461     0.09700
C464        C  0.14668125  0.63651729  0.38651534    -0.17100
C465        C  0.27792225  0.74597579  0.17565714    -0.16200
C466        C  0.30591441  0.76965724  0.17818641     0.07800
C467        C  0.33886069  0.79719913  0.17977891     0.09700
C468        C  0.36639229  0.82168659  0.17735587    -0.17100
C469        C  0.36440686  0.95812807  0.18702288    -0.16200
C470        C  0.33415500  0.97637166  0.18825727     0.07800
C471        C  0.29868790  0.99761188  0.18434236     0.09700
C472        C  0.26960560  0.51817713  0.18028024    -0.17100
C473        C  0.14376747  0.62975099  0.90379267    -0.11000
C474        C  0.15475818  0.63294549  0.95165714    -0.12500
C475        C  0.45138944  0.88581500  0.46143482    -0.11000
C476        C  0.46166780  0.88133071  0.41338669    -0.12500
C477        C  0.03316858  0.50621484  0.79287211    -0.11000
C478        C  0.05300725  0.53973818  0.79360425    -0.12500
C479        C  0.04183335  0.74091451  0.80313490    -0.11000
C480        C  0.06033074  0.70681801  0.80116611    -0.12500
C481        C  0.94798127  0.87900567  0.41685281    -0.16200
C482        C  0.95492258  0.87607497  0.46637211     0.07800
C483        C  0.95888126  0.87252102  0.52535761     0.09700
C484        C  0.95887892  0.86985927  0.57596594    -0.17100
C485        C  0.82236986  0.96845372  0.77306637    -0.16200
C486        C  0.79311628  0.48882650  0.76973361     0.07800
C487        C  0.75891307  0.51301971  0.76864289     0.09700
C488        C  0.73091340  0.53552616  0.77266816    -0.17100
C489        C  0.74796136  0.67134761  0.78870194    -0.16200
C490        C  0.77731711  0.69265003  0.78795554     0.07800
C491        C  0.81125252  0.71827087  0.79168958     0.09700
C492        C  0.83895806  0.74240883  0.79466051    -0.17100
C493        C  0.56575376  0.48914338  0.30227101    -0.11000
C494        C  0.54716243  0.95445137  0.30410835    -0.12500
C495        C  0.56442048  0.75395020  0.29635685    -0.11000
C496        C  0.54525496  0.78712979  0.29947858    -0.12500
C497        C  0.65003485  0.60585753  0.91278731    -0.16200
C498        C  0.64210846  0.60774522  0.96196028     0.07800
C499        C  0.63808519  0.61210055  0.02067249     0.09700
C500        C  0.63872369  0.61629146  0.07096196    -0.17100
C501        C  0.86736336  0.95578845  0.27913993    -0.16200
C502        C  0.83879183  0.97707540  0.27490866     0.07800
C503        C  0.80421004  0.00003172  0.27542840     0.09700
C504        C  0.77497832  0.52019186  0.27761728    -0.17100
C505        C  0.77031023  0.74556561  0.26962758    -0.16200
C506        C  0.79856605  0.76924926  0.26800595     0.07800
C507        C  0.83252430  0.79558346  0.26889615     0.09700
C508        C  0.86120752  0.81794152  0.27457507    -0.17100
C509        C  0.54444027  0.52193562  0.66162127    -0.11000
C510        C  0.56253771  0.55685856  0.65948820    -0.12500
C511        C  0.55969544  0.72395452  0.66754309    -0.11000
C512        C  0.54009747  0.75692940  0.67054748    -0.12500
C513        C  0.64611443  0.63400988  0.55222488    -0.11000
C514        C  0.65631951  0.62957843  0.50411988    -0.12500
C515        C  0.05666443  0.80478987  0.16558812    -0.11000
C516        C  0.07579423  0.77160914  0.16536754    -0.12500
C517        C  0.04095080  0.97081212  0.16277249    -0.11000
C518        C  0.05939301  0.00578795  0.16331192    -0.12500
C519        C  0.94841842  0.88247362  0.00985849    -0.11000
C520        C  0.95989434  0.88422739  0.05769920    -0.12500
loop_ 
_geom_bond_atom_site_label_1 
_geom_bond_atom_site_label_2 
_geom_bond_distance 
_geom_bond_site_symmetry_2 
_ccdc_geom_bond_type 
C1            C2   1.522       .  S
C1            C7   1.523       .  S
C1            C5   1.531       .  S
C1          C255   1.466       .  S
C2            H9   1.088       .  S
C2            C3   1.359   1_455  D
C3            C4   1.556       .  S
C3          C260   1.451       .  S
C4            C8   1.558       .  S
C4            C6   1.557   1_655  S
C4           H10   1.111       .  S
C5           H11   1.087       .  S
C5            C6   1.366       .  D
C6          C257   1.460       .  S
C7           H12   1.087       .  S
C7            C8   1.366   1_455  D
C8           C90   1.491       .  S
C13          C14   1.530       .  S
C13          C19   1.530       .  S
C13          C17   1.535       .  S
C13         C251   1.479       .  S
C14          H21   1.086       .  S
C14          C15   1.365       .  D
C15          C16   1.549       .  S
C15         C253   1.452       .  S
C16          C20   1.548       .  S
C16          C18   1.542       .  S
C16          H22   1.111       .  S
C17          H23   1.086       .  S
C17          C18   1.366       .  D
C18         C250   1.448       .  S
C19          H24   1.086       .  S
C19          C20   1.369       .  D
C20          C55   1.489       .  S
O25          C41   1.276       .  A
O25         Zn31   2.040       .  S
C26          O42   1.277       .  A
C26          O39   1.273       .  A
C26         C245   1.446       .  S
O27          C40   1.278       .  A
O27         Cd34   2.091       .  S
O28          C46   1.273       .  A
O28         Cd37   2.068       .  S
O29          C43   1.276       .  A
O29         Cd33   2.084       .  S
O30          C41   1.275       .  A
O30         Cd33   2.088       .  S
Zn31         O42   2.054       .  S
Zn31         O44   2.020       .  S
Zn31         O36   1.950       .  S
O32          C43   1.271       .  A
O32         Cd37   2.055       .  S
Cd33         O35   2.084       .  S
Cd33         O36   2.006       .  S
Cd34         O38   2.098       .  S
Cd34         O47   2.091       .  S
Cd34         O36   2.013       .  S
O35          C45   1.276       .  A
O36         Cd37   2.000       .  S
Cd37         O39   2.072       .  S
O38          C45   1.278       .  A
C40          O44   1.274       .  A
C40         C235   1.440       .  S
C41         C254   1.447       .  S
C43         C244   1.433       .  S
C45         C233   1.447   1_545  S
C46          O47   1.276       .  A
C46         C240   1.440       .  S
C48          C49   1.533       .  S
C48          C54   1.527       .  S
C48          C52   1.531       .  S
C48         C237   1.472       .  S
C49          H56   1.087       .  S
C49          C50   1.367       .  D
C50          C51   1.543       .  S
C50         C228   1.446       .  S
C51          C55   1.549       .  S
C51          C53   1.539       .  S
C51          H57   1.111       .  S
C52          H58   1.088       .  S
C52          C53   1.361       .  D
C53         C229   1.441       .  S
C54          H59   1.086       .  S
C54          C55   1.370       .  D
O60          C76   1.280       .  A
O60         Zn66   2.065       .  S
C61          O77   1.279       .  A
C61          O74   1.271       .  A
C61         C232   1.436       .  S
O62          C75   1.277       .  A
O62         Cd69   2.097   1_455  S
O63          C81   1.272       .  A
O63         Cd72   2.066       .  S
O64          C78   1.276       .  A
O64         Cd68   2.089       .  S
O65          C76   1.273       .  A
O65         Cd68   2.076       .  S
Zn66         O77   2.055       .  S
Zn66         O79   2.057       .  S
Zn66         O71   1.955       .  S
O67          C78   1.272       .  A
O67         Cd72   2.068       .  S
Cd68         O70   2.072       .  S
Cd68         O71   2.006       .  S
Cd69         O73   2.088   1_655  S
Cd69         O82   2.089       .  S
Cd69         O71   2.011       .  S
O70          C80   1.275   1_655  A
O71         Cd72   1.998       .  S
Cd72         O74   2.049       .  S
O73          C80   1.277       .  A
C75          O79   1.278   1_455  A
C75         C219   1.453       .  S
C76         C259   1.448   1_556  S
C78         C225   1.441       .  S
C80         C477   1.439       .  S
C81          O82   1.275       .  A
C81         C224   1.440       .  S
C83          C84   1.530       .  S
C83          C89   1.526       .  S
C83          C87   1.533       .  S
C83         C221   1.473       .  S
C84          H91   1.087       .  S
C84          C85   1.364       .  D
C85          C86   1.539       .  S
C85         C241   1.438       .  S
C86          C90   1.551       .  S
C86          C88   1.545       .  S
C86          H92   1.111       .  S
C87          H93   1.087       .  S
C87          C88   1.364       .  D
C88         C248   1.450       .  S
C89          H94   1.086       .  S
C89          C90   1.371       .  D
C95          C96   1.527       .  S
C95         C101   1.529       .  S
C95          C99   1.536       .  S
C95         C236   1.473       .  S
C96         H103   1.087       .  S
C96          C97   1.367       .  D
C97          C98   1.550       .  S
C97         C184   1.486       .  S
C98         C102   1.550       .  S
C98         C100   1.545       .  S
C98         H104   1.111       .  S
C99         H105   1.086       .  S
C99         C100   1.366       .  D
C100        C234   1.453       .  S
C101        H106   1.086       .  S
C101        C102   1.364       .  D
C102        C216   1.452       .  S
C107        C108   1.528       .  S
C107        C113   1.526       .  S
C107        C111   1.533       .  S
C107        C218   1.472       .  S
C108        H115   1.088       .  S
C108        C109   1.363       .  D
C109        C110   1.549       .  S
C109        C213   1.449       .  S
C110        C114   1.555       .  S
C110        C112   1.553       .  S
C110        H116   1.111       .  S
C111        H117   1.087       .  S
C111        C112   1.366       .  D
C112        C220   1.458       .  S
C113        H118   1.087       .  S
C113        C114   1.367       .  D
C114        C149   1.491       .  S
O119        C135   1.277       .  A
O119       Zn125   2.051       .  S
C120        O136   1.279       .  A
C120        O133   1.271       .  A
C120        C212   1.438       .  S
O121        C134   1.279       .  A
O121       Cd128   2.106       .  S
O122        C140   1.272       .  A
O122       Cd131   2.063       .  S
O123        C137   1.274       .  A
O123       Cd127   2.081       .  S
O124        C135   1.274       .  A
O124       Cd127   2.077       .  S
Zn125       O136   2.058       .  S
Zn125       O138   2.049       .  S
Zn125       O130   1.951       .  S
O126        C137   1.271       .  A
O126       Cd131   2.063       .  S
Cd127       O129   2.061       .  S
Cd127       O130   2.006       .  S
Cd128       O132   2.084       .  S
Cd128       O141   2.093       .  S
Cd128       O130   2.013       .  S
O129        C139   1.273       .  A
O130       Cd131   1.996       .  S
Cd131       O133   2.049       .  S
O132        C139   1.277       .  A
C134        O138   1.278       .  A
C134        C518   1.455       .  S
C135        C214   1.445   1_554  S
C137        C205   1.436       .  S
C139        C256   1.433       .  S
C140        O141   1.275       .  A
C140        C204   1.440       .  S
C142        C143   1.532       .  S
C142        C148   1.527       .  S
C142        C146   1.533       .  S
C142        C201   1.474       .  S
C143        H150   1.087       .  S
C143        C144   1.365       .  D
C144        C145   1.541       .  S
C144        C196   1.445       .  S
C145        C149   1.553       .  S
C145        C147   1.544       .  S
C145        H151   1.111       .  S
C146        H152   1.088       .  S
C146        C147   1.363       .  D
C147        C197   1.448       .  S
C148        H153   1.086       .  S
C148        C149   1.369       .  D
O154        C170   1.277       .  A
O154       Zn160   2.046       .  S
C155        O171   1.276       .  A
C155        O168   1.274       .  A
C155        C215   1.446       .  S
O156        C169   1.278       .  A
O156       Cd163   2.097       .  S
O157        C175   1.275       .  A
O157       Cd166   2.073       .  S
O158        C172   1.272       .  A
O158       Cd162   2.069       .  S
O159        C170   1.272       .  A
O159       Cd162   2.063       .  S
Zn160       O171   2.043       .  S
Zn160       O173   2.034       .  S
Zn160       O165   1.950       .  S
O161        C172   1.277       .  A
O161       Cd166   2.094       .  S
Cd162       O164   2.068       .  S
Cd162       O165   2.000       .  S
Cd163       O167   2.092       .  S
Cd163       O176   2.094       .  S
Cd163       O165   2.014       .  S
O164        C174   1.273       .  A
O165       Cd166   2.005       .  S
Cd166       O168   2.084       .  S
O167        C174   1.276       .  A
C169        O173   1.275       .  A
C169        C252   1.446       .  S
C170        C193   1.439       .  S
C172        C200   1.442       .  S
C174        C189   1.440       .  S
C175        O176   1.278       .  A
C175        C509   1.442       .  S
C177        C178   1.534       .  S
C177        C183   1.527       .  S
C177        C181   1.531       .  S
C177        C192   1.472       .  S
C178        H185   1.087       .  S
C178        C179   1.362       .  D
C179        C180   1.537       .  S
C179        C208   1.441       .  S
C180        C184   1.549       .  S
C180        C182   1.542       .  S
C180        H186   1.111       .  S
C181        H187   1.087       .  S
C181        C182   1.365       .  D
C182        C209   1.444       .  S
C183        H188   1.087       .  S
C183        C184   1.370       .  D
C189        C190   1.208       .  T
C190        C191   1.416   1_556  S
C191        C192   1.208       .  T
C193        C194   1.208       .  T
C194        C195   1.416       .  S
C195        C196   1.208       .  T
C197        C198   1.210       .  T
C198        C199   1.419       .  S
C199        C460   1.210       .  T
C200        C459   1.210       .  T
C201        C202   1.209       .  T
C202        C203   1.417       .  S
C203        C204   1.209       .  T
C205        C206   1.206       .  T
C206        C207   1.412       .  S
C207        C208   1.206       .  T
C209        C210   1.208       .  T
C210        C211   1.415       .  S
C211        C472   1.208       .  T
C212        C471   1.208   1_545  T
C213        C214   1.211       .  T
C215        C216   1.212       .  T
C217        C340   1.439   1_545  S
C217        C218   1.208       .  T
C219        C220   1.216       .  T
C221        C222   1.209       .  T
C222        C223   1.417       .  S
C223        C224   1.209       .  T
C225        C486   1.209       .  T
C226        C485   1.209       .  T
C226        C227   1.417   1_565  S
C227        C228   1.208       .  T
C229        C230   1.206       .  T
C230        C231   1.413       .  S
C231        C232   1.207       .  T
C233        C494   1.213       .  T
C234        C493   1.213       .  T
C235        C236   1.209       .  T
C237        C238   1.208       .  T
C238        C239   1.416   1_556  S
C239        C240   1.209       .  T
C241        C242   1.204       .  T
C242        C243   1.410       .  S
C243        C504   1.205       .  T
C244        C503   1.205       .  T
C245        C246   1.212       .  T
C246        C247   1.422       .  S
C247        C248   1.211       .  T
C249        C435   1.442   1_545  S
C249        C250   1.210       .  T
C251        C252   1.212       .  T
C253        C254   1.213       .  T
C255        C256   1.205       .  T
C257        C258   1.217       .  T
C258        C394   1.455       .  S
C259        C260   1.213       .  T
C261        C262   1.522       .  S
C261        C267   1.523       .  S
C261        C265   1.531       .  S
C261        C515   1.466       .  S
C262        H269   1.088       .  S
C262        C263   1.359   1_455  D
C263        C264   1.556       .  S
C263        C520   1.451       .  S
C264        C268   1.558       .  S
C264        C266   1.557   1_655  S
C264        H270   1.111       .  S
C265        H271   1.087       .  S
C265        C266   1.366       .  D
C266        C517   1.460       .  S
C267        H272   1.087       .  S
C267        C268   1.366   1_455  D
C268        C350   1.491       .  S
C273        C274   1.530       .  S
C273        C279   1.530       .  S
C273        C277   1.535       .  S
C273        C511   1.479       .  S
C274        H281   1.086       .  S
C274        C275   1.365       .  D
C275        C276   1.549       .  S
C275        C513   1.452       .  S
C276        C280   1.548       .  S
C276        C278   1.542       .  S
C276        H282   1.111       .  S
C277        H283   1.086       .  S
C277        C278   1.366       .  D
C278        C510   1.448       .  S
C279        H284   1.086       .  S
C279        C280   1.369       .  D
C280        C315   1.489       .  S
O285        C301   1.276       .  A
O285       Zn291   2.040       .  S
C286        O302   1.277       .  A
C286        O299   1.273       .  A
C286        C505   1.446       .  S
O287        C300   1.278       .  A
O287       Cd294   2.091       .  S
O288        C306   1.273       .  A
O288       Cd297   2.068       .  S
O289        C303   1.276       .  A
O289       Cd293   2.084       .  S
O290        C301   1.275       .  A
O290       Cd293   2.088       .  S
Zn291       O302   2.054       .  S
Zn291       O304   2.020       .  S
Zn291       O296   1.950       .  S
O292        C303   1.271       .  A
O292       Cd297   2.055       .  S
Cd293       O295   2.084       .  S
Cd293       O296   2.006       .  S
Cd294       O298   2.098       .  S
Cd294       O307   2.091       .  S
Cd294       O296   2.013       .  S
O295        C305   1.276       .  A
O296       Cd297   2.000       .  S
Cd297       O299   2.072       .  S
O298        C305   1.278       .  A
C300        O304   1.274       .  A
C300        C495   1.440       .  S
C301        C514   1.447       .  S
C303        C504   1.433       .  S
C305        C493   1.447       .  S
C306        O307   1.276       .  A
C306        C500   1.440       .  S
C308        C309   1.533       .  S
C308        C314   1.527       .  S
C308        C312   1.531       .  S
C308        C497   1.472       .  S
C309        H316   1.087       .  S
C309        C310   1.367       .  D
C310        C311   1.543       .  S
C310        C488   1.446       .  S
C311        C315   1.549       .  S
C311        C313   1.539       .  S
C311        H317   1.111       .  S
C312        H318   1.088       .  S
C312        C313   1.361       .  D
C313        C489   1.441       .  S
C314        H319   1.086       .  S
C314        C315   1.370       .  D
O320        C336   1.280       .  A
O320       Zn326   2.065       .  S
C321        O337   1.279       .  A
C321        O334   1.271       .  A
C321        C492   1.436       .  S
O322        C335   1.277       .  A
O322       Cd329   2.097   1_455  S
O323        C341   1.272       .  A
O323       Cd332   2.066       .  S
O324        C338   1.276       .  A
O324       Cd328   2.089       .  S
O325        C336   1.273       .  A
O325       Cd328   2.076       .  S
Zn326       O337   2.055       .  S
Zn326       O339   2.057       .  S
Zn326       O331   1.955       .  S
O327        C338   1.272       .  A
O327       Cd332   2.068       .  S
Cd328       O330   2.072       .  S
Cd328       O331   2.006       .  S
Cd329       O333   2.088   1_655  S
Cd329       O342   2.089       .  S
Cd329       O331   2.011       .  S
O330        C340   1.275   1_655  A
O331       Cd332   1.998       .  S
Cd332       O334   2.049       .  S
O333        C340   1.277       .  A
C335        O339   1.278   1_455  A
C335        C479   1.453       .  S
C336        C519   1.448   1_556  S
C338        C485   1.441       .  S
C341        O342   1.275       .  A
C341        C484   1.440       .  S
C343        C344   1.530       .  S
C343        C349   1.526       .  S
C343        C347   1.533       .  S
C343        C481   1.473       .  S
C344        H351   1.087       .  S
C344        C345   1.364       .  D
C345        C346   1.539       .  S
C345        C501   1.438       .  S
C346        C350   1.551       .  S
C346        C348   1.545       .  S
C346        H352   1.111       .  S
C347        H353   1.087       .  S
C347        C348   1.364       .  D
C348        C508   1.450       .  S
C349        H354   1.086       .  S
C349        C350   1.371       .  D
C355        C356   1.527       .  S
C355        C361   1.529       .  S
C355        C359   1.536       .  S
C355        C496   1.473       .  S
C356        H363   1.087       .  S
C356        C357   1.367       .  D
C357        C358   1.550       .  S
C357        C444   1.486       .  S
C358        C362   1.550       .  S
C358        C360   1.545       .  S
C358        H364   1.111       .  S
C359        H365   1.086       .  S
C359        C360   1.366       .  D
C360        C494   1.453       .  S
C361        H366   1.086       .  S
C361        C362   1.364       .  D
C362        C476   1.452       .  S
C367        C368   1.528       .  S
C367        C373   1.526       .  S
C367        C371   1.533       .  S
C367        C478   1.472       .  S
C368        H375   1.088       .  S
C368        C369   1.363       .  D
C369        C370   1.549       .  S
C369        C473   1.449       .  S
C370        C374   1.555       .  S
C370        C372   1.553       .  S
C370        H376   1.111       .  S
C371        H377   1.087       .  S
C371        C372   1.366       .  D
C372        C480   1.458       .  S
C373        H378   1.087       .  S
C373        C374   1.367       .  D
C374        C409   1.491       .  S
O379        C395   1.277       .  A
O379       Zn385   2.051       .  S
C380        O396   1.279       .  A
C380        O393   1.271       .  A
C380        C472   1.438       .  S
O381        C394   1.279       .  A
O381       Cd388   2.106       .  S
O382        C400   1.272       .  A
O382       Cd391   2.063       .  S
O383        C397   1.274       .  A
O383       Cd387   2.081       .  S
O384        C395   1.274       .  A
O384       Cd387   2.077       .  S
Zn385       O396   2.058       .  S
Zn385       O398   2.049       .  S
Zn385       O390   1.951       .  S
O386        C397   1.271       .  A
O386       Cd391   2.063       .  S
Cd387       O389   2.061       .  S
Cd387       O390   2.006       .  S
Cd388       O392   2.084       .  S
Cd388       O401   2.093       .  S
Cd388       O390   2.013       .  S
O389        C399   1.273       .  A
O390       Cd391   1.996       .  S
Cd391       O393   2.049       .  S
O392        C399   1.277       .  A
C394        O398   1.278       .  A
C395        C474   1.445   1_554  S
C397        C465   1.436       .  S
C399        C516   1.433       .  S
C400        O401   1.275       .  A
C400        C464   1.440       .  S
C402        C403   1.532       .  S
C402        C408   1.527       .  S
C402        C406   1.533       .  S
C402        C461   1.474       .  S
C403        H410   1.087       .  S
C403        C404   1.365       .  D
C404        C405   1.541       .  S
C404        C456   1.445       .  S
C405        C409   1.553       .  S
C405        C407   1.544       .  S
C405        H411   1.111       .  S
C406        H412   1.088       .  S
C406        C407   1.363       .  D
C407        C457   1.448       .  S
C408        H413   1.086       .  S
C408        C409   1.369       .  D
O414        C430   1.277       .  A
O414       Zn420   2.046       .  S
C415        O431   1.276       .  A
C415        O428   1.274       .  A
C415        C475   1.446       .  S
O416        C429   1.278       .  A
O416       Cd423   2.097       .  S
O417        C435   1.275       .  A
O417       Cd426   2.073       .  S
O418        C432   1.272       .  A
O418       Cd422   2.069       .  S
O419        C430   1.272       .  A
O419       Cd422   2.063       .  S
Zn420       O431   2.043       .  S
Zn420       O433   2.034       .  S
Zn420       O425   1.950       .  S
O421        C432   1.277       .  A
O421       Cd426   2.094       .  S
Cd422       O424   2.068       .  S
Cd422       O425   2.000       .  S
Cd423       O427   2.092       .  S
Cd423       O436   2.094       .  S
Cd423       O425   2.014       .  S
O424        C434   1.273       .  A
O425       Cd426   2.005       .  S
Cd426       O428   2.084       .  S
O427        C434   1.276       .  A
C429        O433   1.275       .  A
C429        C512   1.446       .  S
C430        C453   1.439       .  S
C432        C460   1.442   1_565  S
C434        C449   1.440       .  S
C435        O436   1.278       .  A
C437        C438   1.534       .  S
C437        C443   1.527       .  S
C437        C441   1.531       .  S
C437        C452   1.472       .  S
C438        H445   1.087       .  S
C438        C439   1.362       .  D
C439        C440   1.537       .  S
C439        C468   1.441       .  S
C440        C444   1.549       .  S
C440        C442   1.542       .  S
C440        H446   1.111       .  S
C441        H447   1.087       .  S
C441        C442   1.365       .  D
C442        C469   1.444       .  S
C443        H448   1.087       .  S
C443        C444   1.370       .  D
C449        C450   1.208       .  T
C450        C451   1.416   1_556  S
C451        C452   1.208       .  T
C453        C454   1.208       .  T
C454        C455   1.416       .  S
C455        C456   1.208       .  T
C457        C458   1.210       .  T
C458        C459   1.419       .  S
C461        C462   1.209       .  T
C462        C463   1.417       .  S
C463        C464   1.209       .  T
C465        C466   1.206       .  T
C466        C467   1.412       .  S
C467        C468   1.206       .  T
C469        C470   1.208       .  T
C470        C471   1.415       .  S
C473        C474   1.211       .  T
C475        C476   1.212       .  T
C477        C478   1.208       .  T
C479        C480   1.216       .  T
C481        C482   1.209       .  T
C482        C483   1.417       .  S
C483        C484   1.209       .  T
C486        C487   1.417       .  S
C487        C488   1.208       .  T
C489        C490   1.206       .  T
C490        C491   1.413       .  S
C491        C492   1.207       .  T
C495        C496   1.209       .  T
C497        C498   1.208       .  T
C498        C499   1.416   1_556  S
C499        C500   1.209       .  T
C501        C502   1.204       .  T
C502        C503   1.410   1_565  S
C505        C506   1.212       .  T
C506        C507   1.422       .  S
C507        C508   1.211       .  T
C509        C510   1.210       .  T
C511        C512   1.212       .  T
C513        C514   1.213       .  T
C515        C516   1.205       .  T
C517        C518   1.217   1_565  T
C519        C520   1.213       .  T
