geometry optimzed in LAMMPS
_audit_creation_date              2020-11-30 
_audit_creation_method            'lammps2cif' 
_symmetry_space_group_name_H-M    'P1' 
_symmetry_Int_Tables_number       1 
_symmetry_cell_setting            triclinic 
loop_ 
_symmetry_equiv_pos_as_xyz 
  x,y,z 
_cell_length_a                    25.46697477582458 
_cell_length_b                    25.955974204366605 
_cell_length_c                    25.58681641462321 
_cell_angle_alpha                 89.48117308500821 
_cell_angle_beta                  90.27615452933951 
_cell_angle_gamma                 90.13799453995017 
loop_ 
_atom_site_label 
_atom_site_type_symbol 
_atom_site_fract_x 
_atom_site_fract_y 
_atom_site_fract_z 
_atom_site_charge 
C1          C  0.29813410  0.30217691  0.29244447    -0.01530
C2          C  0.41474671  0.04462674  0.29669747    -0.01530
C3          C  0.04923003  0.30345933  0.42021462    -0.01530
C4          C  0.16770453  0.16298837  0.16583090    -0.01530
C5          C  0.30030404  0.41927260  0.04522957    -0.01530
C6          C  0.42058830  0.16823557  0.05015217    -0.01530
C7          C  0.16914598  0.05266999  0.41463529    -0.01530
C8          C  0.04852750  0.41544287  0.16760885    -0.01530
Zn9        Zn  0.43978610  0.44022505  0.43883729     1.49720
Zn10       Zn  0.49379123  0.05221875  0.44614781     1.49360
Zn11       Zn  0.45090183  0.49445104  0.04986336     1.49110
Zn12       Zn  0.05471207  0.45574351  0.49546149     1.49480
O13         O  0.48408322  0.48488324  0.48164595    -1.83170
O14         O  0.41468927  0.48484871  0.37366255    -0.73800
O15         O  0.45483619  0.10566944  0.48886870    -0.73620
O16         O  0.38480888  0.45742937  0.05852774    -0.73140
O17         O  0.45740517  0.05837088  0.37941749    -0.73820
O18         O  0.37391661  0.41731974  0.48323305    -0.73420
O19         O  0.43301076  0.07304410  0.06603146    -0.74000
O20         O  0.07003371  0.43396570  0.07390061    -0.73390
O21         O  0.07179813  0.06458408  0.42042164    -0.74150
O22         O  0.49105397  0.45204629  0.10163824    -0.73540
O23         O  0.10853384  0.50867810  0.47416163    -0.74000
O24         O  0.06564991  0.39100423  0.44998491    -0.73910
O25         O  0.48565355  0.37490354  0.41839015    -0.73700
C26         C  0.42746266  0.02888408  0.35406356     0.78090
C27         C  0.43564572  0.11178881  0.03457248     0.78580
C28         C  0.35790055  0.42829979  0.02953872     0.77540
C29         C  0.03616205  0.43246218  0.11026155     0.77910
C30         C  0.11304615  0.04189674  0.43742769     0.79050
C31         C  0.03372718  0.36105233  0.42625377     0.78100
Zn32       Zn  0.22776522  0.42298922  0.19674748     1.49720
Zn33       Zn  0.27705621  0.02828968  0.18456347     1.49360
Zn34       Zn  0.16070561  0.01642273  0.24528032     1.49110
Zn35       Zn  0.26104380  0.47105216  0.29909549     1.49480
O36         O  0.23225196  0.48747400  0.23037566    -1.83170
O37         O  0.26149597  0.41211009  0.12970948    -0.73800
O38         O  0.22990988  0.09168806  0.16527670    -0.73620
O39         O  0.10609995  0.46590191  0.22452633    -0.73140
O40         O  0.29848297  0.48684707  0.11465933    -0.73820
O41         O  0.14614568  0.41299402  0.17212692    -0.73420
O42         O  0.15063075  0.07850309  0.20044399    -0.74000
O43         O  0.21632593  0.50754692  0.34753641    -0.73390
O44         O  0.34345710  0.04693422  0.23193959    -0.74150
O45         O  0.14341078  0.04283922  0.32068259    -0.73540
O46         O  0.32882767  0.00907129  0.30933227    -0.74000
O47         O  0.26913792  0.39101231  0.31746430    -0.73910
O48         O  0.28327716  0.37509019  0.23497057    -0.73700
C49         C  0.28808711  0.44030630  0.10030557     0.78090
C50         C  0.18240909  0.10641934  0.17454106     0.78580
C51         C  0.10371033  0.43138132  0.18926422     0.77540
C52         C  0.17593330  0.03450453  0.35741723     0.77910
C53         C  0.35778931  0.03623497  0.27945564     0.79050
C54         C  0.28375569  0.35954955  0.28215773     0.78100
Zn55       Zn  0.19938527  0.22420031  0.41100782     1.49720
Zn56       Zn  0.30390260  0.26784519  0.46597354     1.49360
Zn57       Zn  0.19087716  0.27598266  0.02663901     1.49110
Zn58       Zn  0.24598305  0.16700631  0.01493943     1.49480
O59         O  0.23456240  0.23479988  0.48019804    -1.83170
O60         O  0.24179046  0.25892184  0.35539910    -0.73800
O61         O  0.31194658  0.33532952  0.00400292    -0.73620
O62         O  0.12430253  0.29922767  0.48164242    -0.73140
O63         O  0.31550133  0.29046155  0.38791041    -0.73820
O64         O  0.13323082  0.26403789  0.40361960    -0.73420
O65         O  0.23888884  0.34211568  0.04993638    -0.74000
O66         O  0.20940254  0.15418529  0.08155859    -0.73390
O67         O  0.36055319  0.22087114  0.49657626    -0.74150
O68         O  0.16457558  0.22591631  0.08994611    -0.73540
O69         O  0.32464383  0.15413452  0.03725520    -0.74000
O70         O  0.20763987  0.11582525  0.47121974    -0.73910
O71         O  0.17953342  0.14682337  0.39542298    -0.73700
C72         C  0.28445542  0.28412315  0.34906274     0.78090
C73         C  0.28350027  0.36124132  0.03487365     0.78580
C74         C  0.10712272  0.29147491  0.43485698     0.77540
C75         C  0.17760887  0.18073508  0.10759980     0.77910
C76         C  0.36525216  0.18135867  0.02666916     0.79050
C77         C  0.18486416  0.10891949  0.42726159     0.78100
Zn78       Zn  0.05235903  0.26409829  0.24765384     1.49720
Zn79       Zn  0.43994983  0.27560288  0.18885021     1.49360
Zn80       Zn  0.49482863  0.16314589  0.20401555     1.49110
Zn81       Zn  0.44686837  0.21935244  0.30344974     1.49480
O82         O  0.48275478  0.23199543  0.23553371    -1.83170
O83         O  0.06406806  0.32986700  0.20460568    -0.73800
O84         O  0.41936064  0.22875462  0.12423959    -0.73620
O85         O  0.07067400  0.15291194  0.17563385    -0.73140
O86         O  0.48626848  0.34176542  0.16660554    -0.73820
O87         O  0.10849534  0.21418259  0.22149823    -0.73420
O88         O  0.44932742  0.15008590  0.13955757    -0.74000
O89         O  0.41800293  0.14136375  0.31000184    -0.73390
O90         O  0.37188277  0.29873822  0.23015711    -0.74150
O91         O  0.47623692  0.10778200  0.25729615    -0.73540
O92         O  0.38188100  0.26181952  0.30820745    -0.74000
O93         O  0.49201146  0.25191419  0.36244951    -0.73910
O94         O  0.06092348  0.28946577  0.32493176    -0.73700
C95         C  0.03340003  0.35768615  0.17691427     0.78090
C96         C  0.42662676  0.18194216  0.10915670     0.78580
C97         C  0.11209180  0.17713955  0.18862652     0.77540
C98         C  0.43656477  0.10157531  0.28710749     0.77910
C99         C  0.35522450  0.28967565  0.27688073     0.79050
C100        C  0.03300043  0.28099660  0.36565733     0.78100
C101        C  0.29075684  0.50017296  0.48858617    -0.11310
C102        C  0.26870225  0.45427447  0.00918902     0.05690
C103        C  0.21728202  0.44160026  0.99455243    -0.06600
C104        C  0.19606502  0.46577243  0.45168740    -0.07340
C105        C  0.20958148  0.01760478  0.44328663    -0.01900
C106        C  0.26319374  0.03082090  0.45357010     0.04920
N107        N  0.29111719  0.07232473  0.42767839     0.67430
H108        H  0.32971970  0.01277764  0.49931948     0.16330
H109        H  0.16098639  0.44940863  0.43434613     0.16040
N110        N  0.18140362  0.42074502  0.03174961     0.75130
O111        O  0.33174964  0.09149856  0.44828238    -0.38320
O112        O  0.28070805  0.08430144  0.38101359    -0.38260
O113        O  0.17575127  0.44342417  0.07469056    -0.38970
O114        O  0.14690732  0.38914755  0.01729511    -0.39030
C115        C  0.03083227  0.21864116  0.46366193    -0.11310
C116        C  0.01959693  0.27151649  0.46087576     0.05690
C117        C  0.48535864  0.29177036  0.49880890    -0.06600
C118        C  0.45205086  0.25861054  0.02472725    -0.07340
C119        C  0.46134528  0.20518146  0.02507257    -0.01900
C120        C  0.50975647  0.18920515  0.50334239     0.04920
N121        N  0.54188697  0.15009598  0.52710475     0.67430
H122        H  0.06145933  0.20229618  0.43977459     0.16330
H123        H  0.42049398  0.27549619  0.04683030     0.16040
N124        N  0.49609865  0.33935939  0.52368995     0.75130
O125        O  0.57951721  0.13082043  0.50216385    -0.38320
O126        O  0.54276354  0.14670149  0.07608776    -0.38260
O127        O  0.45872488  0.36757868  0.53807032    -0.38970
O128        O  0.54016911  0.34372160  0.04574115    -0.39030
C129        C  0.45837005  0.02238790  0.21170373    -0.11310
C130        C  0.44314018  0.00613151  0.26138031     0.05690
C131        C  0.45205360  0.45339223  0.27388784    -0.06600
C132        C  0.48902556  0.42646221  0.24622279    -0.07340
C133        C  0.01211382  0.44796450  0.20138532    -0.01900
C134        C  0.00207908  0.00085687  0.18958688     0.04920
N135        N  0.03190978  0.03170566  0.15269922     0.67430
H136        H  0.44152099  0.05660595  0.19413560     0.16330
H137        H  0.49637296  0.38720254  0.25842719     0.16040
N138        N  0.41359628  0.42267722  0.29987757     0.75130
O139        O  0.01097117  0.07030421  0.13155145    -0.38320
O140        O  0.07998828  0.02430266  0.14433502    -0.38260
O141        O  0.36816041  0.42224705  0.28076904    -0.38970
O142        O  0.42751615  0.38565763  0.32906402    -0.39030
C143        C  0.20202641  0.24567352  0.19131511    -0.11310
C144        C  0.20723649  0.19397482  0.19792016     0.05690
C145        C  0.24139182  0.17684307  0.23836833    -0.06600
C146        C  0.27503743  0.21216412  0.26223871    -0.07340
C147        C  0.26621954  0.26585854  0.25689906    -0.02020
C148        C  0.22553516  0.28034134  0.22237288     0.04920
N149        N  0.20477912  0.32943998  0.21445255     0.67430
H150        H  0.16997044  0.26027882  0.16803196     0.16330
H151        H  0.30215883  0.19794219  0.29171660     0.16040
N152        N  0.23036374  0.13100709  0.26684241     0.75130
O153        O  0.20231628  0.34309222  0.16706274    -0.38320
O154        O  0.17354015  0.34778531  0.24763243    -0.38260
O155        O  0.26711166  0.10126494  0.27986426    -0.38970
O156        O  0.18710269  0.12803281  0.29027029    -0.39030
C157        C  0.29813416  0.30217687  0.79244433    -0.01530
C158        C  0.41474691  0.04462679  0.79669714    -0.01530
C159        C  0.04922944  0.30346006  0.92021468    -0.01530
C160        C  0.16770498  0.16298790  0.66583088    -0.01530
C161        C  0.30030465  0.41927152  0.54522957    -0.01530
C162        C  0.42058910  0.16823464  0.55015217    -0.01530
C163        C  0.16914549  0.05267090  0.91463499    -0.01530
C164        C  0.04852777  0.41544225  0.66760905    -0.01530
Zn165      Zn  0.43978559  0.44022579  0.93883725     1.49720
Zn166      Zn  0.49379062  0.05221975  0.94614774     1.49360
Zn167      Zn  0.45090233  0.49445014  0.54986345     1.49110
Zn168      Zn  0.05471147  0.45574443  0.99546126     1.49480
O169        O  0.48408266  0.48488419  0.98164584    -1.83170
O170        O  0.41468925  0.48484899  0.87366226    -0.73800
O171        O  0.45483534  0.10567050  0.98886850    -0.73620
O172        O  0.38480942  0.45742840  0.55852787    -0.73140
O173        O  0.45740469  0.05837140  0.87941738    -0.73820
O174        O  0.37391588  0.41732084  0.98323287    -0.73420
O175        O  0.43301139  0.07304316  0.56603163    -0.74000
O176        O  0.07003412  0.43396467  0.57390080    -0.73390
O177        O  0.07179758  0.06458523  0.92042145    -0.74150
O178        O  0.49105443  0.45204560  0.60163834    -0.73540
O179        O  0.10853320  0.50867888  0.97416108    -0.74000
O180        O  0.06564923  0.39100508  0.94998469    -0.73910
O181        O  0.48565286  0.37490419  0.91839013    -0.73700
C182        C  0.42746257  0.02888435  0.85406330     0.78090
C183        C  0.43564651  0.11178784  0.53457264     0.78580
C184        C  0.35790120  0.42829871  0.52953887     0.77540
C185        C  0.03616242  0.43246138  0.61026172     0.77910
C186        C  0.11304557  0.04189769  0.93742732     0.79050
C187        C  0.03372652  0.36105307  0.92625367     0.78100
Zn188      Zn  0.22776537  0.42298892  0.69674728     1.49720
Zn189      Zn  0.27705651  0.02828911  0.68456318     1.49360
Zn190      Zn  0.16070575  0.01642233  0.74528022     1.49110
Zn191      Zn  0.26104386  0.47105231  0.79909550     1.49480
O192        O  0.23225218  0.48747372  0.73037555    -1.83170
O193        O  0.26149624  0.41210939  0.62970938    -0.73800
O194        O  0.22991020  0.09168752  0.66527663    -0.73620
O195        O  0.10610017  0.46590119  0.72452665    -0.73140
O196        O  0.29848332  0.48684628  0.61465908    -0.73820
O197        O  0.14614590  0.41299374  0.67212682    -0.73420
O198        O  0.15063098  0.07850261  0.70044380    -0.74000
O199        O  0.21632590  0.50754745  0.84753646    -0.73390
O200        O  0.34345747  0.04693380  0.73193907    -0.74150
O201        O  0.14341063  0.04283927  0.82068226    -0.73540
O202        O  0.32882780  0.00907148  0.80933201    -0.74000
O203        O  0.26913811  0.39101235  0.81746413    -0.73910
O204        O  0.28327713  0.37508999  0.73497037    -0.73700
C205        C  0.28808751  0.44030546  0.60030545     0.78090
C206        C  0.18240944  0.10641886  0.67454102     0.78580
C207        C  0.10371056  0.43138075  0.68926440     0.77540
C208        C  0.17593313  0.03450504  0.85741703     0.77910
C209        C  0.35778956  0.03623488  0.77945521     0.79050
C210        C  0.28375575  0.35954949  0.78215754     0.78100
Zn211      Zn  0.19938469  0.22420127  0.91100773     1.49720
Zn212      Zn  0.30390192  0.26784619  0.96597353     1.49360
Zn213      Zn  0.19087773  0.27598172  0.52663886     1.49110
Zn214      Zn  0.24598382  0.16700538  0.51493955     1.49480
O215        O  0.23456172  0.23480087  0.98019802    -1.83170
O216        O  0.24179016  0.25892238  0.85539896    -0.73800
O217        O  0.31194736  0.33532835  0.50400319    -0.73620
O218        O  0.12430185  0.29922847  0.98164263    -0.73140
O219        O  0.31550108  0.29046192  0.88791034    -0.73820
O220        O  0.13323038  0.26403901  0.90361965    -0.73420
O221        O  0.23888943  0.34211465  0.54993634    -0.74000
O222        O  0.20940333  0.15418476  0.58155877    -0.73390
O223        O  0.36055234  0.22087225  0.99657653    -0.74150
O224        O  0.16457582  0.22591550  0.58994586    -0.73540
O225        O  0.32464462  0.15413362  0.53725527    -0.74000
O226        O  0.20763920  0.11582634  0.97121937    -0.73910
O227        O  0.17953268  0.14682437  0.89542264    -0.73700
C228        C  0.28445530  0.28412339  0.84906261     0.78090
C229        C  0.28350094  0.36124022  0.53487377     0.78580
C230        C  0.10712214  0.29147580  0.93485712     0.77540
C231        C  0.17760934  0.18073443  0.60759973     0.77910
C232        C  0.36525298  0.18135767  0.52666907     0.79050
C233        C  0.18486354  0.10892050  0.92726122     0.78100
Zn234      Zn  0.05235936  0.26409786  0.74765406     1.49720
Zn235      Zn  0.43995009  0.27560234  0.68885016     1.49360
Zn236      Zn  0.49482911  0.16314560  0.70401565     1.49110
Zn237      Zn  0.44686842  0.21935241  0.80344971     1.49480
O238        O  0.48275507  0.23199514  0.73553376    -1.83170
O239        O  0.06406837  0.32986646  0.70460592    -0.73800
O240        O  0.41936124  0.22875383  0.62423951    -0.73620
O241        O  0.07067443  0.15291177  0.67563382    -0.73140
O242        O  0.48626882  0.34176480  0.66660564    -0.73820
O243        O  0.10849593  0.21418212  0.72149851    -0.73420
O244        O  0.44932803  0.15008515  0.63955770    -0.74000
O245        O  0.41800288  0.14136377  0.81000140    -0.73390
O246        O  0.37188289  0.29873786  0.73015697    -0.74150
O247        O  0.47623759  0.10778196  0.75729650    -0.73540
O248        O  0.38188106  0.26181951  0.80820746    -0.74000
O249        O  0.49201117  0.25191443  0.86244963    -0.73910
O250        O  0.06092331  0.28946586  0.82493193    -0.73700
C251        C  0.03340033  0.35768557  0.67691450     0.78090
C252        C  0.42662744  0.18194135  0.60915671     0.78580
C253        C  0.11209230  0.17713921  0.68862660     0.77540
C254        C  0.43656498  0.10157533  0.78710726     0.77910
C255        C  0.35522459  0.28967553  0.77688064     0.79050
C256        C  0.03300005  0.28099699  0.86565743     0.78100
C257        C  0.29075610  0.50017433  0.98858662    -0.11310
C258        C  0.26870293  0.45427321  0.50918877     0.05690
C259        C  0.21728260  0.44159912  0.49455239    -0.06600
C260        C  0.19606458  0.46577350  0.95168736    -0.07340
C261        C  0.20958093  0.01760587  0.94328662    -0.01900
C262        C  0.26319312  0.03082212  0.95357031     0.04920
N263        N  0.29111663  0.07232586  0.92767851     0.67430
H264        H  0.32971888  0.01277907  0.99932013     0.16330
H265        H  0.16098609  0.44940958  0.93434590     0.16040
N266        N  0.18140427  0.42074413  0.53174978     0.75130
O267        O  0.33174905  0.09149975  0.94828251    -0.38320
O268        O  0.28070759  0.08430242  0.88101365    -0.38260
O269        O  0.17575174  0.44342380  0.57469042    -0.38970
O270        O  0.14690805  0.38914643  0.51729558    -0.39030
C271        C  0.03083179  0.21864204  0.96366235    -0.11310
C272        C  0.01959633  0.27151733  0.96087592     0.05690
C273        C  0.48535791  0.29177130  0.99880892    -0.06600
C274        C  0.45205163  0.25860956  0.52472722    -0.07340
C275        C  0.46134610  0.20518049  0.52507251    -0.01900
C276        C  0.50975576  0.18920609  0.00334272     0.04920
N277        N  0.54188603  0.15009686  0.02710525     0.67430
H278        H  0.06145901  0.20229704  0.93977522     0.16330
H279        H  0.42049473  0.27549519  0.54683024     0.16040
N280        N  0.49609784  0.33936040  0.02368985     0.75130
O281        O  0.57951610  0.13082091  0.00216442    -0.38320
O282        O  0.54276451  0.14670041  0.57608725    -0.38260
O283        O  0.45872404  0.36757969  0.03807015    -0.38970
O284        O  0.54016990  0.34372045  0.54574133    -0.39030
C285        C  0.45837094  0.02238793  0.71170375    -0.11310
C286        C  0.44314063  0.00613154  0.76138019     0.05690
C287        C  0.45205348  0.45339216  0.77388760    -0.06600
C288        C  0.48902524  0.42646181  0.74622259    -0.07340
C289        C  0.01211405  0.44796403  0.70138536    -0.01900
C290        C  0.00207979  0.00085651  0.68958691     0.04920
N291        N  0.03191066  0.03170501  0.65269912     0.67430
H292        H  0.44152217  0.05660608  0.69413557     0.16330
H293        H  0.49637209  0.38720200  0.75842689     0.16040
N294        N  0.41359571  0.42267751  0.79987708     0.75130
O295        O  0.01097227  0.07030365  0.63155130    -0.38320
O296        O  0.07998909  0.02430168  0.64433483    -0.38260
O297        O  0.36816016  0.42224727  0.78076777    -0.38970
O298        O  0.42751508  0.38565806  0.82906393    -0.39030
C299        C  0.20202693  0.24567310  0.69131476    -0.11310
C300        C  0.20723701  0.19397441  0.69791999     0.05690
C301        C  0.24139228  0.17684280  0.73836825    -0.06600
C302        C  0.27503763  0.21216397  0.76223881    -0.07340
C303        C  0.26621970  0.26585837  0.75689899    -0.02020
C304        C  0.22553551  0.28034103  0.72237254     0.04920
N305        N  0.20477924  0.32943959  0.71445223     0.67430
H306        H  0.16997095  0.26027828  0.66803156     0.16330
H307        H  0.30215890  0.19794215  0.79171686     0.16040
N308        N  0.23036435  0.13100673  0.76684221     0.75130
O309        O  0.20231619  0.34309180  0.66706242    -0.38320
O310        O  0.17354031  0.34778483  0.74763220    -0.38260
O311        O  0.26711238  0.10126468  0.77986396    -0.38970
O312        O  0.18710339  0.12803237  0.79027023    -0.39030
C313        C  0.29813409  0.80217690  0.29244447    -0.01530
C314        C  0.41474672  0.54462674  0.29669746    -0.01530
C315        C  0.04923003  0.80345934  0.42021462    -0.01530
C316        C  0.16770453  0.66298837  0.16583090    -0.01530
C317        C  0.30030404  0.91927260  0.04522957    -0.01530
C318        C  0.42058830  0.66823557  0.05015217    -0.01530
C319        C  0.16914598  0.55266998  0.41463529    -0.01530
C320        C  0.04852750  0.91544287  0.16760885    -0.01530
Zn321      Zn  0.43978610  0.94022506  0.43883730     1.49720
Zn322      Zn  0.49379122  0.55221874  0.44614780     1.49360
Zn323      Zn  0.45090183  0.99445105  0.04986337     1.49110
Zn324      Zn  0.05471207  0.95574351  0.49546150     1.49480
O325        O  0.48408322  0.98488325  0.48164596    -1.83170
O326        O  0.41468927  0.98484872  0.37366256    -0.73800
O327        O  0.45483619  0.60566944  0.48886870    -0.73620
O328        O  0.38480888  0.95742937  0.05852774    -0.73140
O329        O  0.45740517  0.55837087  0.37941748    -0.73820
O330        O  0.37391661  0.91731975  0.48323305    -0.73420
O331        O  0.43301077  0.57304409  0.06603146    -0.74000
O332        O  0.07003371  0.93396571  0.07390061    -0.73390
O333        O  0.07179813  0.56458407  0.42042163    -0.74150
O334        O  0.49105397  0.95204630  0.10163824    -0.73540
O335        O  0.10853385  0.00867810  0.47416163    -0.74000
O336        O  0.06564991  0.89100424  0.44998492    -0.73910
O337        O  0.48565355  0.87490355  0.41839015    -0.73700
C338        C  0.42746266  0.52888407  0.35406355     0.78090
C339        C  0.43564572  0.61178881  0.03457248     0.78580
C340        C  0.35790055  0.92829979  0.02953873     0.77540
C341        C  0.03616205  0.93246218  0.11026155     0.77910
C342        C  0.11304615  0.54189674  0.43742769     0.79050
C343        C  0.03372718  0.86105233  0.42625377     0.78100
Zn344      Zn  0.22776522  0.92298922  0.19674748     1.49720
Zn345      Zn  0.27705621  0.52828968  0.18456347     1.49360
Zn346      Zn  0.16070561  0.51642273  0.24528031     1.49110
Zn347      Zn  0.26104380  0.97105216  0.29909549     1.49480
O348        O  0.23225196  0.98747400  0.23037567    -1.83170
O349        O  0.26149597  0.91211009  0.12970948    -0.73800
O350        O  0.22990987  0.59168806  0.16527670    -0.73620
O351        O  0.10609995  0.96590191  0.22452634    -0.73140
O352        O  0.29848297  0.98684707  0.11465933    -0.73820
O353        O  0.14614568  0.91299402  0.17212693    -0.73420
O354        O  0.15063075  0.57850309  0.20044399    -0.74000
O355        O  0.21632593  0.00754692  0.34753641    -0.73390
O356        O  0.34345710  0.54693422  0.23193958    -0.74150
O357        O  0.14341078  0.54283922  0.32068258    -0.73540
O358        O  0.32882767  0.50907129  0.30933226    -0.74000
O359        O  0.26913792  0.89101231  0.31746431    -0.73910
O360        O  0.28327716  0.87509019  0.23497058    -0.73700
C361        C  0.28808711  0.94030630  0.10030557     0.78090
C362        C  0.18240909  0.60641934  0.17454106     0.78580
C363        C  0.10371033  0.93138132  0.18926423     0.77540
C364        C  0.17593330  0.53450452  0.35741723     0.77910
C365        C  0.35778931  0.53623497  0.27945563     0.79050
C366        C  0.28375569  0.85954955  0.28215773     0.78100
Zn367      Zn  0.19938527  0.72420031  0.41100783     1.49720
Zn368      Zn  0.30390260  0.76784519  0.46597354     1.49360
Zn369      Zn  0.19087716  0.77598266  0.02663901     1.49110
Zn370      Zn  0.24598306  0.66700631  0.01493943     1.49480
O371        O  0.23456240  0.73479988  0.48019804    -1.83170
O372        O  0.24179046  0.75892184  0.35539910    -0.73800
O373        O  0.31194658  0.83532952  0.00400292    -0.73620
O374        O  0.12430253  0.79922768  0.48164242    -0.73140
O375        O  0.31550133  0.79046155  0.38791042    -0.73820
O376        O  0.13323082  0.76403790  0.40361960    -0.73420
O377        O  0.23888884  0.84211568  0.04993638    -0.74000
O378        O  0.20940254  0.65418529  0.08155859    -0.73390
O379        O  0.36055319  0.72087113  0.49657626    -0.74150
O380        O  0.16457558  0.72591631  0.08994611    -0.73540
O381        O  0.32464383  0.65413452  0.03725520    -0.74000
O382        O  0.20763986  0.61582525  0.47121974    -0.73910
O383        O  0.17953341  0.64682336  0.39542298    -0.73700
C384        C  0.28445542  0.78412315  0.34906275     0.78090
C385        C  0.28350027  0.86124132  0.03487365     0.78580
C386        C  0.10712271  0.79147491  0.43485698     0.77540
C387        C  0.17760887  0.68073509  0.10759979     0.77910
C388        C  0.36525216  0.68135867  0.02666915     0.79050
C389        C  0.18486415  0.60891949  0.42726159     0.78100
Zn390      Zn  0.05235903  0.76409829  0.24765384     1.49720
Zn391      Zn  0.43994983  0.77560288  0.18885021     1.49360
Zn392      Zn  0.49482863  0.66314590  0.20401554     1.49110
Zn393      Zn  0.44686837  0.71935244  0.30344973     1.49480
O394        O  0.48275477  0.73199543  0.23553371    -1.83170
O395        O  0.06406806  0.82986700  0.20460568    -0.73800
O396        O  0.41936064  0.72875462  0.12423958    -0.73620
O397        O  0.07067400  0.65291195  0.17563385    -0.73140
O398        O  0.48626848  0.84176542  0.16660554    -0.73820
O399        O  0.10849534  0.71418259  0.22149823    -0.73420
O400        O  0.44932742  0.65008589  0.13955756    -0.74000
O401        O  0.41800293  0.64136375  0.31000183    -0.73390
O402        O  0.37188277  0.79873822  0.23015711    -0.74150
O403        O  0.47623692  0.60778200  0.25729614    -0.73540
O404        O  0.38188100  0.76181952  0.30820745    -0.74000
O405        O  0.49201145  0.75191420  0.36244951    -0.73910
O406        O  0.06092348  0.78946578  0.32493176    -0.73700
C407        C  0.03340002  0.85768615  0.17691427     0.78090
C408        C  0.42662676  0.68194216  0.10915670     0.78580
C409        C  0.11209180  0.67713955  0.18862652     0.77540
C410        C  0.43656478  0.60157531  0.28710748     0.77910
C411        C  0.35522449  0.78967565  0.27688073     0.79050
C412        C  0.03300043  0.78099660  0.36565733     0.78100
C413        C  0.29075684  0.00017297  0.48858617    -0.11310
C414        C  0.26870225  0.95427447  0.00918903     0.05690
C415        C  0.21728202  0.94160026  0.99455243    -0.06600
C416        C  0.19606503  0.96577243  0.45168740    -0.07340
C417        C  0.20958148  0.51760477  0.44328663    -0.01900
C418        C  0.26319374  0.53082089  0.45357009     0.04920
N419        N  0.29111718  0.57232473  0.42767839     0.67430
H420        H  0.32971970  0.51277764  0.49931948     0.16330
H421        H  0.16098639  0.94940863  0.43434613     0.16040
N422        N  0.18140362  0.92074503  0.03174962     0.75130
O423        O  0.33174964  0.59149855  0.44828238    -0.38320
O424        O  0.28070805  0.58430144  0.38101359    -0.38260
O425        O  0.17575127  0.94342418  0.07469056    -0.38970
O426        O  0.14690732  0.88914755  0.01729512    -0.39030
C427        C  0.03083226  0.71864116  0.46366192    -0.11310
C428        C  0.01959692  0.77151649  0.46087576     0.05690
C429        C  0.48535864  0.79177036  0.49880890    -0.06600
C430        C  0.45205086  0.75861054  0.02472725    -0.07340
C431        C  0.46134529  0.70518146  0.02507257    -0.01900
C432        C  0.50975646  0.68920514  0.50334237     0.04920
N433        N  0.54188696  0.65009596  0.52710471     0.67430
H434        H  0.06145932  0.70229618  0.43977457     0.16330
H435        H  0.42049399  0.77549619  0.04683030     0.16040
N436        N  0.49609863  0.83935940  0.52368995     0.75130
O437        O  0.57951720  0.63082043  0.50216380    -0.38320
O438        O  0.54276354  0.64670146  0.07608772    -0.38260
O439        O  0.45872486  0.86757867  0.53807033    -0.38970
O440        O  0.54016911  0.84372161  0.04574114    -0.39030
C441        C  0.45837005  0.52238790  0.21170372    -0.11310
C442        C  0.44314018  0.50613151  0.26138030     0.05690
C443        C  0.45205360  0.95339223  0.27388785    -0.06600
C444        C  0.48902556  0.92646221  0.24622279    -0.07340
C445        C  0.01211382  0.94796450  0.20138533    -0.01900
C446        C  0.00207908  0.50085687  0.18958688     0.04920
N447        N  0.03190979  0.53170566  0.15269921     0.67430
H448        H  0.44152099  0.55660595  0.19413560     0.16330
H449        H  0.49637295  0.88720254  0.25842719     0.16040
N450        N  0.41359629  0.92267722  0.29987759     0.75130
O451        O  0.01097118  0.57030421  0.13155145    -0.38320
O452        O  0.07998829  0.52430265  0.14433501    -0.38260
O453        O  0.36816041  0.92224705  0.28076907    -0.38970
O454        O  0.42751616  0.88565763  0.32906403    -0.39030
C455        C  0.20202641  0.74567352  0.19131511    -0.11310
C456        C  0.20723648  0.69397482  0.19792016     0.05690
C457        C  0.24139182  0.67684307  0.23836833    -0.06600
C458        C  0.27503742  0.71216412  0.26223871    -0.07340
C459        C  0.26621954  0.76585854  0.25689907    -0.02020
C460        C  0.22553516  0.78034134  0.22237288     0.04920
N461        N  0.20477912  0.82943999  0.21445255     0.67430
H462        H  0.16997044  0.76027882  0.16803197     0.16330
H463        H  0.30215882  0.69794219  0.29171660     0.16040
N464        N  0.23036374  0.63100709  0.26684240     0.75130
O465        O  0.20231628  0.84309222  0.16706274    -0.38320
O466        O  0.17354015  0.84778532  0.24763243    -0.38260
O467        O  0.26711166  0.60126494  0.27986425    -0.38970
O468        O  0.18710269  0.62803280  0.29027029    -0.39030
C469        C  0.29813416  0.80217687  0.79244433    -0.01530
C470        C  0.41474692  0.54462679  0.79669713    -0.01530
C471        C  0.04922944  0.80346006  0.92021468    -0.01530
C472        C  0.16770498  0.66298791  0.66583088    -0.01530
C473        C  0.30030465  0.91927152  0.54522958    -0.01530
C474        C  0.42058910  0.66823463  0.55015217    -0.01530
C475        C  0.16914549  0.55267090  0.91463498    -0.01530
C476        C  0.04852776  0.91544225  0.66760905    -0.01530
Zn477      Zn  0.43978559  0.94022580  0.93883726     1.49720
Zn478      Zn  0.49379062  0.55221974  0.94614773     1.49360
Zn479      Zn  0.45090233  0.99445015  0.54986345     1.49110
Zn480      Zn  0.05471147  0.95574443  0.99546126     1.49480
O481        O  0.48408266  0.98488419  0.98164585    -1.83170
O482        O  0.41468924  0.98484900  0.87366227    -0.73800
O483        O  0.45483534  0.60567050  0.98886849    -0.73620
O484        O  0.38480942  0.95742840  0.55852787    -0.73140
O485        O  0.45740469  0.55837140  0.87941738    -0.73820
O486        O  0.37391588  0.91732084  0.98323288    -0.73420
O487        O  0.43301139  0.57304316  0.56603163    -0.74000
O488        O  0.07003412  0.93396467  0.57390081    -0.73390
O489        O  0.07179758  0.56458522  0.92042144    -0.74150
O490        O  0.49105442  0.95204561  0.60163834    -0.73540
O491        O  0.10853320  0.00867888  0.97416108    -0.74000
O492        O  0.06564923  0.89100508  0.94998470    -0.73910
O493        O  0.48565286  0.87490420  0.91839014    -0.73700
C494        C  0.42746258  0.52888434  0.85406329     0.78090
C495        C  0.43564651  0.61178784  0.53457263     0.78580
C496        C  0.35790120  0.92829871  0.52953887     0.77540
C497        C  0.03616242  0.93246138  0.61026172     0.77910
C498        C  0.11304558  0.54189769  0.93742731     0.79050
C499        C  0.03372652  0.86105307  0.92625367     0.78100
Zn500      Zn  0.22776537  0.92298892  0.69674729     1.49720
Zn501      Zn  0.27705651  0.52828911  0.68456317     1.49360
Zn502      Zn  0.16070575  0.51642233  0.74528021     1.49110
Zn503      Zn  0.26104386  0.97105231  0.79909551     1.49480
O504        O  0.23225217  0.98747372  0.73037556    -1.83170
O505        O  0.26149624  0.91210939  0.62970938    -0.73800
O506        O  0.22991020  0.59168753  0.66527663    -0.73620
O507        O  0.10610017  0.96590119  0.72452666    -0.73140
O508        O  0.29848332  0.98684628  0.61465909    -0.73820
O509        O  0.14614590  0.91299374  0.67212682    -0.73420
O510        O  0.15063098  0.57850261  0.70044380    -0.74000
O511        O  0.21632589  0.00754745  0.84753647    -0.73390
O512        O  0.34345747  0.54693380  0.73193906    -0.74150
O513        O  0.14341063  0.54283927  0.82068226    -0.73540
O514        O  0.32882781  0.50907147  0.80933200    -0.74000
O515        O  0.26913811  0.89101235  0.81746413    -0.73910
O516        O  0.28327714  0.87508999  0.73497038    -0.73700
C517        C  0.28808751  0.94030547  0.60030546     0.78090
C518        C  0.18240944  0.60641886  0.67454102     0.78580
C519        C  0.10371056  0.93138075  0.68926441     0.77540
C520        C  0.17593313  0.53450504  0.85741703     0.77910
C521        C  0.35778957  0.53623488  0.77945520     0.79050
C522        C  0.28375575  0.85954949  0.78215755     0.78100
Zn523      Zn  0.19938469  0.72420128  0.91100773     1.49720
Zn524      Zn  0.30390192  0.76784619  0.96597353     1.49360
Zn525      Zn  0.19087773  0.77598173  0.52663887     1.49110
Zn526      Zn  0.24598382  0.66700538  0.51493955     1.49480
O527        O  0.23456172  0.73480087  0.98019802    -1.83170
O528        O  0.24179016  0.75892238  0.85539896    -0.73800
O529        O  0.31194736  0.83532835  0.50400320    -0.73620
O530        O  0.12430185  0.79922847  0.98164263    -0.73140
O531        O  0.31550108  0.79046193  0.88791034    -0.73820
O532        O  0.13323038  0.76403901  0.90361965    -0.73420
O533        O  0.23888943  0.84211465  0.54993634    -0.74000
O534        O  0.20940332  0.65418476  0.58155877    -0.73390
O535        O  0.36055234  0.72087225  0.99657652    -0.74150
O536        O  0.16457583  0.72591551  0.58994586    -0.73540
O537        O  0.32464462  0.65413362  0.53725527    -0.74000
O538        O  0.20763920  0.61582634  0.97121937    -0.73910
O539        O  0.17953268  0.64682437  0.89542264    -0.73700
C540        C  0.28445530  0.78412340  0.84906261     0.78090
C541        C  0.28350094  0.86124022  0.53487377     0.78580
C542        C  0.10712213  0.79147580  0.93485712     0.77540
C543        C  0.17760934  0.68073444  0.60759974     0.77910
C544        C  0.36525298  0.68135767  0.52666906     0.79050
C545        C  0.18486354  0.60892050  0.92726122     0.78100
Zn546      Zn  0.05235936  0.76409786  0.74765407     1.49720
Zn547      Zn  0.43995008  0.77560234  0.68885015     1.49360
Zn548      Zn  0.49482912  0.66314560  0.70401564     1.49110
Zn549      Zn  0.44686842  0.71935241  0.80344970     1.49480
O550        O  0.48275507  0.73199514  0.73553375    -1.83170
O551        O  0.06406837  0.82986646  0.70460592    -0.73800
O552        O  0.41936124  0.72875383  0.62423951    -0.73620
O553        O  0.07067443  0.65291178  0.67563381    -0.73140
O554        O  0.48626881  0.84176480  0.66660564    -0.73820
O555        O  0.10849592  0.71418211  0.72149852    -0.73420
O556        O  0.44932803  0.65008515  0.63955769    -0.74000
O557        O  0.41800288  0.64136378  0.81000140    -0.73390
O558        O  0.37188289  0.79873786  0.73015697    -0.74150
O559        O  0.47623759  0.60778197  0.75729650    -0.73540
O560        O  0.38188106  0.76181951  0.80820746    -0.74000
O561        O  0.49201117  0.75191444  0.86244963    -0.73910
O562        O  0.06092330  0.78946587  0.82493193    -0.73700
C563        C  0.03340032  0.85768557  0.67691450     0.78090
C564        C  0.42662744  0.68194135  0.60915670     0.78580
C565        C  0.11209230  0.67713921  0.68862660     0.77540
C566        C  0.43656499  0.60157533  0.78710725     0.77910
C567        C  0.35522459  0.78967553  0.77688064     0.79050
C568        C  0.03300004  0.78099699  0.86565743     0.78100
C569        C  0.29075610  0.00017433  0.98858662    -0.11310
C570        C  0.26870293  0.95427322  0.50918877     0.05690
C571        C  0.21728260  0.94159913  0.49455239    -0.06600
C572        C  0.19606457  0.96577350  0.95168736    -0.07340
C573        C  0.20958093  0.51760587  0.94328661    -0.01900
C574        C  0.26319312  0.53082212  0.95357031     0.04920
N575        N  0.29111663  0.57232586  0.92767851     0.67430
H576        H  0.32971888  0.51277907  0.99932013     0.16330
H577        H  0.16098609  0.94940958  0.93434590     0.16040
N578        N  0.18140427  0.92074414  0.53174979     0.75130
O579        O  0.33174905  0.59149974  0.94828251    -0.38320
O580        O  0.28070759  0.58430242  0.88101365    -0.38260
O581        O  0.17575174  0.94342381  0.57469042    -0.38970
O582        O  0.14690805  0.88914644  0.51729558    -0.39030
C583        C  0.03083178  0.71864205  0.96366234    -0.11310
C584        C  0.01959632  0.77151733  0.96087592     0.05690
C585        C  0.48535791  0.79177130  0.99880892    -0.06600
C586        C  0.45205163  0.75860956  0.52472722    -0.07340
C587        C  0.46134609  0.70518049  0.52507250    -0.01900
C588        C  0.50975575  0.68920609  0.00334270     0.04920
N589        N  0.54188603  0.65009685  0.02710521     0.67430
H590        H  0.06145900  0.70229704  0.93977521     0.16330
H591        H  0.42049473  0.77549519  0.54683024     0.16040
N592        N  0.49609784  0.83936041  0.02368985     0.75130
O593        O  0.57951610  0.63082091  0.00216437    -0.38320
O594        O  0.54276451  0.64670038  0.57608721    -0.38260
O595        O  0.45872403  0.86757968  0.03807016    -0.38970
O596        O  0.54016989  0.84372046  0.54574132    -0.39030
C597        C  0.45837095  0.52238794  0.71170374    -0.11310
C598        C  0.44314064  0.50613155  0.76138018     0.05690
C599        C  0.45205348  0.95339215  0.77388761    -0.06600
C600        C  0.48902524  0.92646180  0.74622260    -0.07340
C601        C  0.01211405  0.94796403  0.70138537    -0.01900
C602        C  0.00207979  0.50085651  0.68958690     0.04920
N603        N  0.03191066  0.53170501  0.65269912     0.67430
H604        H  0.44152218  0.55660609  0.69413556     0.16330
H605        H  0.49637210  0.88720200  0.75842689     0.16040
N606        N  0.41359574  0.92267750  0.79987712     0.75130
O607        O  0.01097228  0.57030365  0.63155131    -0.38320
O608        O  0.07998909  0.52430168  0.64433483    -0.38260
O609        O  0.36816017  0.92224727  0.78076785    -0.38970
O610        O  0.42751512  0.88565804  0.82906395    -0.39030
C611        C  0.20202692  0.74567310  0.69131478    -0.11310
C612        C  0.20723701  0.69397442  0.69791999     0.05690
C613        C  0.24139228  0.67684280  0.73836825    -0.06600
C614        C  0.27503763  0.71216397  0.76223881    -0.07340
C615        C  0.26621970  0.76585837  0.75689899    -0.02020
C616        C  0.22553550  0.78034104  0.72237255     0.04920
N617        N  0.20477924  0.82943960  0.71445223     0.67430
H618        H  0.16997093  0.76027828  0.66803158     0.16330
H619        H  0.30215891  0.69794215  0.79171686     0.16040
N620        N  0.23036437  0.63100673  0.76684220     0.75130
O621        O  0.20231620  0.84309180  0.66706243    -0.38320
O622        O  0.17354031  0.84778484  0.74763220    -0.38260
O623        O  0.26711240  0.60126469  0.77986396    -0.38970
O624        O  0.18710341  0.62803236  0.79027022    -0.39030
C625        C  0.79813410  0.30217690  0.29244447    -0.01530
C626        C  0.91474671  0.04462674  0.29669747    -0.01530
C627        C  0.54923003  0.30345933  0.42021462    -0.01530
C628        C  0.66770453  0.16298836  0.16583091    -0.01530
C629        C  0.80030404  0.41927259  0.04522957    -0.01530
C630        C  0.92058830  0.16823558  0.05015217    -0.01530
C631        C  0.66914598  0.05266998  0.41463529    -0.01530
C632        C  0.54852751  0.41544287  0.16760885    -0.01530
Zn633      Zn  0.93978610  0.44022505  0.43883730     1.49720
Zn634      Zn  0.99379123  0.05221874  0.44614781     1.49360
Zn635      Zn  0.95090183  0.49445105  0.04986336     1.49110
Zn636      Zn  0.55471207  0.45574351  0.49546149     1.49480
O637        O  0.98408322  0.48488324  0.48164595    -1.83170
O638        O  0.91468927  0.48484871  0.37366255    -0.73800
O639        O  0.95483620  0.10566944  0.48886871    -0.73620
O640        O  0.88480888  0.45742937  0.05852774    -0.73140
O641        O  0.95740517  0.05837087  0.37941749    -0.73820
O642        O  0.87391661  0.41731974  0.48323305    -0.73420
O643        O  0.93301076  0.07304410  0.06603146    -0.74000
O644        O  0.57003371  0.43396570  0.07390061    -0.73390
O645        O  0.57179813  0.06458407  0.42042164    -0.74150
O646        O  0.99105397  0.45204630  0.10163824    -0.73540
O647        O  0.60853384  0.50867810  0.47416164    -0.74000
O648        O  0.56564991  0.39100424  0.44998491    -0.73910
O649        O  0.98565355  0.37490354  0.41839015    -0.73700
C650        C  0.92746266  0.02888407  0.35406357     0.78090
C651        C  0.93564572  0.11178881  0.03457248     0.78580
C652        C  0.85790056  0.42829979  0.02953872     0.77540
C653        C  0.53616205  0.43246218  0.11026155     0.77910
C654        C  0.61304615  0.04189674  0.43742769     0.79050
C655        C  0.53372718  0.36105233  0.42625377     0.78100
Zn656      Zn  0.72776523  0.42298922  0.19674748     1.49720
Zn657      Zn  0.77705621  0.02828967  0.18456347     1.49360
Zn658      Zn  0.66070561  0.01642273  0.24528032     1.49110
Zn659      Zn  0.76104380  0.47105216  0.29909549     1.49480
O660        O  0.73225196  0.48747400  0.23037566    -1.83170
O661        O  0.76149597  0.41211008  0.12970948    -0.73800
O662        O  0.72990988  0.09168806  0.16527670    -0.73620
O663        O  0.60609996  0.46590191  0.22452633    -0.73140
O664        O  0.79848297  0.48684706  0.11465933    -0.73820
O665        O  0.64614568  0.41299401  0.17212693    -0.73420
O666        O  0.65063075  0.07850309  0.20044399    -0.74000
O667        O  0.71632593  0.50754691  0.34753641    -0.73390
O668        O  0.84345710  0.04693422  0.23193959    -0.74150
O669        O  0.64341078  0.04283922  0.32068259    -0.73540
O670        O  0.82882767  0.00907129  0.30933227    -0.74000
O671        O  0.76913792  0.39101231  0.31746431    -0.73910
O672        O  0.78327717  0.37509018  0.23497058    -0.73700
C673        C  0.78808711  0.44030630  0.10030557     0.78090
C674        C  0.68240909  0.10641933  0.17454107     0.78580
C675        C  0.60371033  0.43138132  0.18926422     0.77540
C676        C  0.67593330  0.03450452  0.35741724     0.77910
C677        C  0.85778930  0.03623497  0.27945564     0.79050
C678        C  0.78375570  0.35954954  0.28215773     0.78100
Zn679      Zn  0.69938527  0.22420031  0.41100782     1.49720
Zn680      Zn  0.80390261  0.26784519  0.46597354     1.49360
Zn681      Zn  0.69087716  0.27598266  0.02663901     1.49110
Zn682      Zn  0.74598306  0.16700631  0.01493944     1.49480
O683        O  0.73456240  0.23479988  0.48019804    -1.83170
O684        O  0.74179046  0.25892184  0.35539910    -0.73800
O685        O  0.81194658  0.33532952  0.00400292    -0.73620
O686        O  0.62430253  0.29922767  0.48164242    -0.73140
O687        O  0.81550133  0.29046155  0.38791042    -0.73820
O688        O  0.63323082  0.26403789  0.40361960    -0.73420
O689        O  0.73888884  0.34211568  0.04993638    -0.74000
O690        O  0.70940254  0.15418529  0.08155859    -0.73390
O691        O  0.86055320  0.22087114  0.49657626    -0.74150
O692        O  0.66457558  0.22591631  0.08994611    -0.73540
O693        O  0.82464383  0.15413452  0.03725520    -0.74000
O694        O  0.70763987  0.11582525  0.47121975    -0.73910
O695        O  0.67953342  0.14682336  0.39542298    -0.73700
C696        C  0.78445542  0.28412315  0.34906275     0.78090
C697        C  0.78350027  0.36124132  0.03487365     0.78580
C698        C  0.60712272  0.29147491  0.43485698     0.77540
C699        C  0.67760887  0.18073508  0.10759980     0.77910
C700        C  0.86525216  0.18135867  0.02666916     0.79050
C701        C  0.68486416  0.10891949  0.42726160     0.78100
Zn702      Zn  0.55235903  0.26409829  0.24765384     1.49720
Zn703      Zn  0.93994983  0.27560288  0.18885021     1.49360
Zn704      Zn  0.99482863  0.16314589  0.20401555     1.49110
Zn705      Zn  0.94686837  0.21935243  0.30344974     1.49480
O706        O  0.98275478  0.23199543  0.23553371    -1.83170
O707        O  0.56406806  0.32986699  0.20460568    -0.73800
O708        O  0.91936064  0.22875462  0.12423958    -0.73620
O709        O  0.57067400  0.15291194  0.17563386    -0.73140
O710        O  0.98626848  0.34176542  0.16660554    -0.73820
O711        O  0.60849534  0.21418259  0.22149823    -0.73420
O712        O  0.94932742  0.15008590  0.13955757    -0.74000
O713        O  0.91800293  0.14136375  0.31000184    -0.73390
O714        O  0.87188277  0.29873822  0.23015712    -0.74150
O715        O  0.97623692  0.10778200  0.25729614    -0.73540
O716        O  0.88188100  0.26181952  0.30820745    -0.74000
O717        O  0.99201146  0.25191419  0.36244951    -0.73910
O718        O  0.56092349  0.28946577  0.32493176    -0.73700
C719        C  0.53340003  0.35768615  0.17691427     0.78090
C720        C  0.92662676  0.18194216  0.10915670     0.78580
C721        C  0.61209181  0.17713955  0.18862652     0.77540
C722        C  0.93656478  0.10157530  0.28710749     0.77910
C723        C  0.85522450  0.28967565  0.27688073     0.79050
C724        C  0.53300043  0.28099660  0.36565733     0.78100
C725        C  0.79075684  0.50017295  0.48858616    -0.11310
C726        C  0.76870225  0.45427447  0.00918902     0.05690
C727        C  0.71728202  0.44160025  0.99455243    -0.06600
C728        C  0.69606502  0.46577242  0.45168741    -0.07340
C729        C  0.70958148  0.01760477  0.44328664    -0.01900
C730        C  0.76319374  0.03082089  0.45357010     0.04920
N731        N  0.79111719  0.07232473  0.42767839     0.67430
H732        H  0.82971970  0.01277763  0.49931948     0.16330
H733        H  0.66098638  0.44940863  0.43434614     0.16040
N734        N  0.68140362  0.42074502  0.03174961     0.75130
O735        O  0.83174964  0.09149855  0.44828238    -0.38320
O736        O  0.78070805  0.08430143  0.38101360    -0.38260
O737        O  0.67575128  0.44342416  0.07469056    -0.38970
O738        O  0.64690732  0.38914755  0.01729510    -0.39030
C739        C  0.53083227  0.21864116  0.46366193    -0.11310
C740        C  0.51959693  0.27151649  0.46087576     0.05690
C741        C  0.98535865  0.29177036  0.49880891    -0.06600
C742        C  0.95205086  0.25861054  0.02472725    -0.07340
C743        C  0.96134529  0.20518146  0.02507257    -0.01900
C744        C  0.00975647  0.18920515  0.50334239     0.04920
N745        N  0.04188697  0.15009598  0.52710475     0.67430
H746        H  0.56145933  0.20229618  0.43977458     0.16330
H747        H  0.92049399  0.27549619  0.04683030     0.16040
N748        N  0.99609866  0.33935939  0.52368996     0.75130
O749        O  0.07951721  0.13082043  0.50216386    -0.38320
O750        O  0.04276354  0.14670148  0.07608775    -0.38260
O751        O  0.95872489  0.36757868  0.53807032    -0.38970
O752        O  0.04016912  0.34372160  0.04574115    -0.39030
C753        C  0.95837004  0.02238789  0.21170373    -0.11310
C754        C  0.94314017  0.00613150  0.26138031     0.05690
C755        C  0.95205361  0.45339222  0.27388785    -0.06600
C756        C  0.98902556  0.42646221  0.24622279    -0.07340
C757        C  0.51211382  0.44796450  0.20138532    -0.01900
C758        C  0.50207909  0.00085688  0.18958688     0.04920
N759        N  0.53190979  0.03170566  0.15269922     0.67430
H760        H  0.94152098  0.05660594  0.19413561     0.16330
H761        H  0.99637296  0.38720254  0.25842719     0.16040
N762        N  0.91359629  0.42267721  0.29987759     0.75130
O763        O  0.51097118  0.07030420  0.13155144    -0.38320
O764        O  0.57998829  0.02430266  0.14433502    -0.38260
O765        O  0.86816041  0.42224705  0.28076907    -0.38970
O766        O  0.92751617  0.38565762  0.32906402    -0.39030
C767        C  0.70202641  0.24567352  0.19131511    -0.11310
C768        C  0.70723649  0.19397482  0.19792016     0.05690
C769        C  0.74139182  0.17684307  0.23836833    -0.06600
C770        C  0.77503743  0.21216412  0.26223871    -0.07340
C771        C  0.76621954  0.26585854  0.25689907    -0.02020
C772        C  0.72553517  0.28034134  0.22237288     0.04920
N773        N  0.70477913  0.32943998  0.21445255     0.67430
H774        H  0.66997045  0.26027882  0.16803197     0.16330
H775        H  0.80215883  0.19794219  0.29171660     0.16040
N776        N  0.73036374  0.13100709  0.26684241     0.75130
O777        O  0.70231629  0.34309221  0.16706274    -0.38320
O778        O  0.67354016  0.34778531  0.24763243    -0.38260
O779        O  0.76711166  0.10126494  0.27986426    -0.38970
O780        O  0.68710269  0.12803281  0.29027029    -0.39030
C781        C  0.79813416  0.30217687  0.79244433    -0.01530
C782        C  0.91474692  0.04462680  0.79669714    -0.01530
C783        C  0.54922944  0.30346005  0.92021468    -0.01530
C784        C  0.66770498  0.16298790  0.66583088    -0.01530
C785        C  0.80030465  0.41927152  0.54522957    -0.01530
C786        C  0.92058911  0.16823464  0.55015218    -0.01530
C787        C  0.66914549  0.05267090  0.91463499    -0.01530
C788        C  0.54852777  0.41544225  0.66760905    -0.01530
Zn789      Zn  0.93978559  0.44022580  0.93883725     1.49720
Zn790      Zn  0.99379062  0.05221975  0.94614774     1.49360
Zn791      Zn  0.95090233  0.49445014  0.54986345     1.49110
Zn792      Zn  0.55471148  0.45574443  0.99546125     1.49480
O793        O  0.98408266  0.48488419  0.98164584    -1.83170
O794        O  0.91468925  0.48484899  0.87366226    -0.73800
O795        O  0.95483534  0.10567050  0.98886850    -0.73620
O796        O  0.88480942  0.45742840  0.55852787    -0.73140
O797        O  0.95740469  0.05837141  0.87941738    -0.73820
O798        O  0.87391588  0.41732084  0.98323287    -0.73420
O799        O  0.93301138  0.07304316  0.56603163    -0.74000
O800        O  0.57003412  0.43396467  0.57390080    -0.73390
O801        O  0.57179758  0.06458523  0.92042145    -0.74150
O802        O  0.99105443  0.45204561  0.60163834    -0.73540
O803        O  0.60853320  0.50867888  0.97416107    -0.74000
O804        O  0.56564923  0.39100508  0.94998469    -0.73910
O805        O  0.98565286  0.37490419  0.91839013    -0.73700
C806        C  0.92746258  0.02888435  0.85406329     0.78090
C807        C  0.93564652  0.11178784  0.53457264     0.78580
C808        C  0.85790121  0.42829871  0.52953887     0.77540
C809        C  0.53616242  0.43246137  0.61026171     0.77910
C810        C  0.61304558  0.04189769  0.93742732     0.79050
C811        C  0.53372652  0.36105306  0.92625367     0.78100
Zn812      Zn  0.72776537  0.42298892  0.69674728     1.49720
Zn813      Zn  0.77705651  0.02828911  0.68456318     1.49360
Zn814      Zn  0.66070575  0.01642232  0.74528022     1.49110
Zn815      Zn  0.76104387  0.47105230  0.79909550     1.49480
O816        O  0.73225218  0.48747371  0.73037555    -1.83170
O817        O  0.76149624  0.41210939  0.62970938    -0.73800
O818        O  0.72991020  0.09168752  0.66527663    -0.73620
O819        O  0.60610017  0.46590119  0.72452665    -0.73140
O820        O  0.79848332  0.48684628  0.61465908    -0.73820
O821        O  0.64614590  0.41299373  0.67212682    -0.73420
O822        O  0.65063098  0.07850260  0.70044380    -0.74000
O823        O  0.71632590  0.50754745  0.84753646    -0.73390
O824        O  0.84345747  0.04693381  0.73193907    -0.74150
O825        O  0.64341063  0.04283927  0.82068226    -0.73540
O826        O  0.82882781  0.00907147  0.80933200    -0.74000
O827        O  0.76913811  0.39101235  0.81746413    -0.73910
O828        O  0.78327713  0.37508999  0.73497037    -0.73700
C829        C  0.78808751  0.44030546  0.60030545     0.78090
C830        C  0.68240944  0.10641885  0.67454102     0.78580
C831        C  0.60371056  0.43138074  0.68926440     0.77540
C832        C  0.67593314  0.03450504  0.85741703     0.77910
C833        C  0.85778956  0.03623488  0.77945521     0.79050
C834        C  0.78375575  0.35954948  0.78215754     0.78100
Zn835      Zn  0.69938469  0.22420127  0.91100773     1.49720
Zn836      Zn  0.80390192  0.26784619  0.96597353     1.49360
Zn837      Zn  0.69087773  0.27598172  0.52663886     1.49110
Zn838      Zn  0.74598383  0.16700538  0.51493955     1.49480
O839        O  0.73456172  0.23480087  0.98019802    -1.83170
O840        O  0.74179016  0.25892238  0.85539896    -0.73800
O841        O  0.81194736  0.33532835  0.50400319    -0.73620
O842        O  0.62430185  0.29922846  0.98164263    -0.73140
O843        O  0.81550108  0.29046192  0.88791033    -0.73820
O844        O  0.63323038  0.26403901  0.90361965    -0.73420
O845        O  0.73888944  0.34211465  0.54993634    -0.74000
O846        O  0.70940333  0.15418476  0.58155877    -0.73390
O847        O  0.86055234  0.22087225  0.99657653    -0.74150
O848        O  0.66457582  0.22591550  0.58994586    -0.73540
O849        O  0.82464462  0.15413362  0.53725528    -0.74000
O850        O  0.70763920  0.11582635  0.97121937    -0.73910
O851        O  0.67953268  0.14682437  0.89542264    -0.73700
C852        C  0.78445530  0.28412339  0.84906261     0.78090
C853        C  0.78350094  0.36124021  0.53487377     0.78580
C854        C  0.60712214  0.29147579  0.93485712     0.77540
C855        C  0.67760934  0.18073443  0.60759973     0.77910
C856        C  0.86525298  0.18135767  0.52666907     0.79050
C857        C  0.68486354  0.10892050  0.92726122     0.78100
Zn858      Zn  0.55235936  0.26409786  0.74765406     1.49720
Zn859      Zn  0.93995009  0.27560234  0.68885016     1.49360
Zn860      Zn  0.99482912  0.16314560  0.70401565     1.49110
Zn861      Zn  0.94686842  0.21935241  0.80344971     1.49480
O862        O  0.98275507  0.23199515  0.73553376    -1.83170
O863        O  0.56406837  0.32986645  0.70460591    -0.73800
O864        O  0.91936124  0.22875383  0.62423952    -0.73620
O865        O  0.57067443  0.15291177  0.67563382    -0.73140
O866        O  0.98626882  0.34176481  0.66660564    -0.73820
O867        O  0.60849592  0.21418211  0.72149851    -0.73420
O868        O  0.94932803  0.15008515  0.63955770    -0.74000
O869        O  0.91800287  0.14136378  0.81000140    -0.73390
O870        O  0.87188289  0.29873786  0.73015697    -0.74150
O871        O  0.97623760  0.10778197  0.75729652    -0.73540
O872        O  0.88188106  0.26181951  0.80820746    -0.74000
O873        O  0.99201117  0.25191444  0.86244963    -0.73910
O874        O  0.56092330  0.28946586  0.82493193    -0.73700
C875        C  0.53340033  0.35768557  0.67691449     0.78090
C876        C  0.92662744  0.18194135  0.60915671     0.78580
C877        C  0.61209230  0.17713921  0.68862660     0.77540
C878        C  0.93656498  0.10157534  0.78710726     0.77910
C879        C  0.85522459  0.28967553  0.77688064     0.79050
C880        C  0.53300005  0.28099698  0.86565743     0.78100
C881        C  0.79075610  0.50017433  0.98858662    -0.11310
C882        C  0.76870293  0.45427321  0.50918877     0.05690
C883        C  0.71728259  0.44159912  0.49455240    -0.06600
C884        C  0.69606458  0.46577349  0.95168736    -0.07340
C885        C  0.70958093  0.01760587  0.94328662    -0.01900
C886        C  0.76319312  0.03082212  0.95357031     0.04920
N887        N  0.79111663  0.07232586  0.92767851     0.67430
H888        H  0.82971888  0.01277908  0.99932014     0.16330
H889        H  0.66098609  0.44940957  0.93434589     0.16040
N890        N  0.68140427  0.42074413  0.53174979     0.75130
O891        O  0.83174905  0.09149975  0.94828252    -0.38320
O892        O  0.78070759  0.08430242  0.88101366    -0.38260
O893        O  0.67575174  0.44342381  0.57469043    -0.38970
O894        O  0.64690805  0.38914643  0.51729560    -0.39030
C895        C  0.53083179  0.21864204  0.96366235    -0.11310
C896        C  0.51959633  0.27151733  0.96087592     0.05690
C897        C  0.98535792  0.29177130  0.99880892    -0.06600
C898        C  0.95205163  0.25860957  0.52472722    -0.07340
C899        C  0.96134610  0.20518049  0.52507251    -0.01900
C900        C  0.00975576  0.18920609  0.00334272     0.04920
N901        N  0.04188603  0.15009686  0.02710524     0.67430
H902        H  0.56145901  0.20229703  0.93977523     0.16330
H903        H  0.92049474  0.27549519  0.54683025     0.16040
N904        N  0.99609784  0.33936041  0.02368985     0.75130
O905        O  0.07951611  0.13082092  0.00216441    -0.38320
O906        O  0.04276452  0.14670042  0.57608725    -0.38260
O907        O  0.95872404  0.36757969  0.03807015    -0.38970
O908        O  0.04016991  0.34372044  0.54574133    -0.39030
C909        C  0.95837096  0.02238795  0.71170375    -0.11310
C910        C  0.94314064  0.00613156  0.76138019     0.05690
C911        C  0.95205347  0.45339216  0.77388760    -0.06600
C912        C  0.98902523  0.42646181  0.74622259    -0.07340
C913        C  0.51211405  0.44796402  0.70138536    -0.01900
C914        C  0.50207977  0.00085650  0.68958691     0.04920
N915        N  0.53191065  0.03170501  0.65269913     0.67430
H916        H  0.94152219  0.05660610  0.69413557     0.16330
H917        H  0.99637208  0.38720201  0.75842688     0.16040
N918        N  0.91359570  0.42267752  0.79987707     0.75130
O919        O  0.51097226  0.07030365  0.63155132    -0.38320
O920        O  0.57998908  0.02430168  0.64433484    -0.38260
O921        O  0.86816016  0.42224727  0.78076773    -0.38970
O922        O  0.92751506  0.38565807  0.82906393    -0.39030
C923        C  0.70202693  0.24567310  0.69131477    -0.11310
C924        C  0.70723701  0.19397441  0.69791999     0.05690
C925        C  0.74139228  0.17684279  0.73836825    -0.06600
C926        C  0.77503763  0.21216397  0.76223881    -0.07340
C927        C  0.76621970  0.26585837  0.75689898    -0.02020
C928        C  0.72553550  0.28034103  0.72237254     0.04920
N929        N  0.70477923  0.32943959  0.71445223     0.67430
H930        H  0.66997094  0.26027827  0.66803157     0.16330
H931        H  0.80215891  0.19794215  0.79171686     0.16040
N932        N  0.73036436  0.13100673  0.76684221     0.75130
O933        O  0.70231619  0.34309179  0.66706242    -0.38320
O934        O  0.67354031  0.34778483  0.74763220    -0.38260
O935        O  0.76711239  0.10126468  0.77986397    -0.38970
O936        O  0.68710340  0.12803236  0.79027022    -0.39030
C937        C  0.79813409  0.80217690  0.29244447    -0.01530
C938        C  0.91474671  0.54462674  0.29669747    -0.01530
C939        C  0.54923003  0.80345934  0.42021462    -0.01530
C940        C  0.66770453  0.66298837  0.16583090    -0.01530
C941        C  0.80030404  0.91927260  0.04522957    -0.01530
C942        C  0.92058830  0.66823557  0.05015217    -0.01530
C943        C  0.66914598  0.55266998  0.41463529    -0.01530
C944        C  0.54852750  0.91544287  0.16760885    -0.01530
Zn945      Zn  0.93978610  0.94022506  0.43883731     1.49720
Zn946      Zn  0.99379122  0.55221874  0.44614781     1.49360
Zn947      Zn  0.95090183  0.99445105  0.04986337     1.49110
Zn948      Zn  0.55471207  0.95574352  0.49546150     1.49480
O949        O  0.98408322  0.98488325  0.48164596    -1.83170
O950        O  0.91468927  0.98484872  0.37366256    -0.73800
O951        O  0.95483619  0.60566944  0.48886870    -0.73620
O952        O  0.88480888  0.95742937  0.05852774    -0.73140
O953        O  0.95740517  0.55837087  0.37941749    -0.73820
O954        O  0.87391661  0.91731974  0.48323306    -0.73420
O955        O  0.93301076  0.57304409  0.06603146    -0.74000
O956        O  0.57003371  0.93396571  0.07390061    -0.73390
O957        O  0.57179812  0.56458406  0.42042162    -0.74150
O958        O  0.99105397  0.95204630  0.10163824    -0.73540
O959        O  0.60853385  0.00867810  0.47416164    -0.74000
O960        O  0.56564991  0.89100424  0.44998491    -0.73910
O961        O  0.98565355  0.87490354  0.41839016    -0.73700
C962        C  0.92746266  0.52888407  0.35406356     0.78090
C963        C  0.93564572  0.61178881  0.03457248     0.78580
C964        C  0.85790055  0.92829979  0.02953872     0.77540
C965        C  0.53616205  0.93246218  0.11026155     0.77910
C966        C  0.61304615  0.54189674  0.43742769     0.79050
C967        C  0.53372718  0.86105234  0.42625377     0.78100
Zn968      Zn  0.72776522  0.92298922  0.19674748     1.49720
Zn969      Zn  0.77705621  0.52828967  0.18456347     1.49360
Zn970      Zn  0.66070561  0.51642272  0.24528031     1.49110
Zn971      Zn  0.76104380  0.97105216  0.29909550     1.49480
O972        O  0.73225196  0.98747400  0.23037567    -1.83170
O973        O  0.76149597  0.91211009  0.12970948    -0.73800
O974        O  0.72990987  0.59168806  0.16527670    -0.73620
O975        O  0.60609995  0.96590191  0.22452634    -0.73140
O976        O  0.79848297  0.98684706  0.11465934    -0.73820
O977        O  0.64614568  0.91299402  0.17212693    -0.73420
O978        O  0.65063075  0.57850309  0.20044399    -0.74000
O979        O  0.71632593  0.00754692  0.34753641    -0.73390
O980        O  0.84345710  0.54693422  0.23193959    -0.74150
O981        O  0.64341078  0.54283922  0.32068258    -0.73540
O982        O  0.82882767  0.50907129  0.30933227    -0.74000
O983        O  0.76913792  0.89101231  0.31746431    -0.73910
O984        O  0.78327716  0.87509019  0.23497058    -0.73700
C985        C  0.78808711  0.94030630  0.10030557     0.78090
C986        C  0.68240909  0.60641933  0.17454106     0.78580
C987        C  0.60371033  0.93138132  0.18926423     0.77540
C988        C  0.67593330  0.53450452  0.35741723     0.77910
C989        C  0.85778930  0.53623497  0.27945564     0.79050
C990        C  0.78375569  0.85954954  0.28215773     0.78100
Zn991      Zn  0.69938526  0.72420031  0.41100782     1.49720
Zn992      Zn  0.80390260  0.76784519  0.46597354     1.49360
Zn993      Zn  0.69087715  0.77598266  0.02663901     1.49110
Zn994      Zn  0.74598305  0.66700630  0.01493943     1.49480
O995        O  0.73456240  0.73479988  0.48019804    -1.83170
O996        O  0.74179046  0.75892183  0.35539910    -0.73800
O997        O  0.81194658  0.83532952  0.00400292    -0.73620
O998        O  0.62430253  0.79922768  0.48164242    -0.73140
O999        O  0.81550132  0.79046155  0.38791042    -0.73820
O1000       O  0.63323081  0.76403790  0.40361960    -0.73420
O1001       O  0.73888884  0.84211568  0.04993638    -0.74000
O1002       O  0.70940253  0.65418529  0.08155859    -0.73390
O1003       O  0.86055319  0.72087113  0.49657626    -0.74150
O1004       O  0.66457558  0.72591631  0.08994611    -0.73540
O1005       O  0.82464383  0.65413451  0.03725520    -0.74000
O1006       O  0.70763987  0.61582524  0.47121974    -0.73910
O1007       O  0.67953341  0.64682336  0.39542298    -0.73700
C1008       C  0.78445542  0.78412315  0.34906275     0.78090
C1009       C  0.78350027  0.86124132  0.03487365     0.78580
C1010       C  0.60712271  0.79147491  0.43485698     0.77540
C1011       C  0.67760887  0.68073508  0.10759979     0.77910
C1012       C  0.86525216  0.68135867  0.02666915     0.79050
C1013       C  0.68486415  0.60891949  0.42726159     0.78100
Zn1014     Zn  0.55235903  0.76409829  0.24765384     1.49720
Zn1015     Zn  0.93994983  0.77560288  0.18885021     1.49360
Zn1016     Zn  0.99482863  0.66314590  0.20401555     1.49110
Zn1017     Zn  0.94686837  0.71935243  0.30344974     1.49480
O1018       O  0.98275477  0.73199543  0.23553371    -1.83170
O1019       O  0.56406806  0.82986699  0.20460568    -0.73800
O1020       O  0.91936064  0.72875462  0.12423958    -0.73620
O1021       O  0.57067400  0.65291195  0.17563384    -0.73140
O1022       O  0.98626848  0.84176542  0.16660554    -0.73820
O1023       O  0.60849534  0.71418259  0.22149823    -0.73420
O1024       O  0.94932742  0.65008590  0.13955757    -0.74000
O1025       O  0.91800293  0.64136375  0.31000184    -0.73390
O1026       O  0.87188277  0.79873822  0.23015712    -0.74150
O1027       O  0.97623692  0.60778200  0.25729614    -0.73540
O1028       O  0.88188100  0.76181952  0.30820745    -0.74000
O1029       O  0.99201145  0.75191420  0.36244951    -0.73910
O1030       O  0.56092348  0.78946578  0.32493176    -0.73700
C1031       C  0.53340002  0.85768615  0.17691427     0.78090
C1032       C  0.92662676  0.68194216  0.10915670     0.78580
C1033       C  0.61209180  0.67713955  0.18862652     0.77540
C1034       C  0.93656477  0.60157530  0.28710749     0.77910
C1035       C  0.85522449  0.78967565  0.27688073     0.79050
C1036       C  0.53300043  0.78099661  0.36565732     0.78100
C1037       C  0.79075684  0.00017296  0.48858617    -0.11310
C1038       C  0.76870225  0.95427447  0.00918903     0.05690
C1039       C  0.71728202  0.94160026  0.99455243    -0.06600
C1040       C  0.69606502  0.96577243  0.45168741    -0.07340
C1041       C  0.70958148  0.51760477  0.44328663    -0.01900
C1042       C  0.76319374  0.53082089  0.45357009     0.04920
N1043       N  0.79111718  0.57232472  0.42767838     0.67430
H1044       H  0.82971970  0.51277763  0.49931946     0.16330
H1045       H  0.66098639  0.94940863  0.43434614     0.16040
N1046       N  0.68140362  0.92074503  0.03174961     0.75130
O1047       O  0.83174964  0.59149855  0.44828237    -0.38320
O1048       O  0.78070804  0.58430143  0.38101359    -0.38260
O1049       O  0.67575127  0.94342417  0.07469056    -0.38970
O1050       O  0.64690732  0.88914755  0.01729511    -0.39030
C1051       C  0.53083226  0.71864116  0.46366191    -0.11310
C1052       C  0.51959692  0.77151649  0.46087576     0.05690
C1053       C  0.98535864  0.79177036  0.49880891    -0.06600
C1054       C  0.95205085  0.75861054  0.02472725    -0.07340
C1055       C  0.96134528  0.70518146  0.02507257    -0.01900
C1056       C  0.00975646  0.68920514  0.50334238     0.04920
N1057       N  0.04188697  0.65009597  0.52710473     0.67430
H1058       H  0.56145932  0.70229619  0.43977456     0.16330
H1059       H  0.92049398  0.77549619  0.04683030     0.16040
N1060       N  0.99609865  0.83935939  0.52368996     0.75130
O1061       O  0.07951720  0.63082042  0.50216382    -0.38320
O1062       O  0.04276354  0.64670147  0.07608774    -0.38260
O1063       O  0.95872487  0.86757867  0.53807033    -0.38970
O1064       O  0.04016910  0.84372162  0.04574114    -0.39030
C1065       C  0.95837005  0.52238789  0.21170372    -0.11310
C1066       C  0.94314018  0.50613150  0.26138030     0.05690
C1067       C  0.95205361  0.95339222  0.27388786    -0.06600
C1068       C  0.98902556  0.92646221  0.24622280    -0.07340
C1069       C  0.51211382  0.94796450  0.20138533    -0.01900
C1070       C  0.50207909  0.50085687  0.18958688     0.04920
N1071       N  0.53190980  0.53170566  0.15269921     0.67430
H1072       H  0.94152098  0.55660594  0.19413560     0.16330
H1073       H  0.99637297  0.88720254  0.25842720     0.16040
N1074       N  0.91359630  0.92267721  0.29987760     0.75130
O1075       O  0.51097119  0.57030421  0.13155145    -0.38320
O1076       O  0.57998829  0.52430265  0.14433500    -0.38260
O1077       O  0.86816041  0.92224705  0.28076910    -0.38970
O1078       O  0.92751618  0.88565762  0.32906404    -0.39030
C1079       C  0.70202641  0.74567352  0.19131511    -0.11310
C1080       C  0.70723648  0.69397482  0.19792016     0.05690
C1081       C  0.74139182  0.67684307  0.23836833    -0.06600
C1082       C  0.77503742  0.71216412  0.26223871    -0.07340
C1083       C  0.76621954  0.76585854  0.25689907    -0.02020
C1084       C  0.72553516  0.78034134  0.22237288     0.04920
N1085       N  0.70477912  0.82943998  0.21445255     0.67430
H1086       H  0.66997044  0.76027882  0.16803197     0.16330
H1087       H  0.80215882  0.69794219  0.29171660     0.16040
N1088       N  0.73036374  0.63100709  0.26684240     0.75130
O1089       O  0.70231628  0.84309222  0.16706274    -0.38320
O1090       O  0.67354015  0.84778531  0.24763243    -0.38260
O1091       O  0.76711166  0.60126494  0.27986425    -0.38970
O1092       O  0.68710269  0.62803280  0.29027029    -0.39030
C1093       C  0.79813416  0.80217687  0.79244433    -0.01530
C1094       C  0.91474692  0.54462680  0.79669713    -0.01530
C1095       C  0.54922944  0.80346006  0.92021468    -0.01530
C1096       C  0.66770498  0.66298790  0.66583087    -0.01530
C1097       C  0.80030465  0.91927152  0.54522958    -0.01530
C1098       C  0.92058910  0.66823463  0.55015217    -0.01530
C1099       C  0.66914549  0.55267090  0.91463498    -0.01530
C1100       C  0.54852776  0.91544225  0.66760905    -0.01530
Zn1101     Zn  0.93978559  0.94022580  0.93883725     1.49720
Zn1102     Zn  0.99379062  0.55221974  0.94614773     1.49360
Zn1103     Zn  0.95090233  0.99445014  0.54986345     1.49110
Zn1104     Zn  0.55471148  0.95574443  0.99546126     1.49480
O1105       O  0.98408266  0.98488419  0.98164584    -1.83170
O1106       O  0.91468925  0.98484900  0.87366226    -0.73800
O1107       O  0.95483534  0.60567050  0.98886850    -0.73620
O1108       O  0.88480942  0.95742840  0.55852788    -0.73140
O1109       O  0.95740469  0.55837140  0.87941738    -0.73820
O1110       O  0.87391588  0.91732084  0.98323288    -0.73420
O1111       O  0.93301139  0.57304316  0.56603163    -0.74000
O1112       O  0.57003412  0.93396467  0.57390081    -0.73390
O1113       O  0.57179758  0.56458521  0.92042144    -0.74150
O1114       O  0.99105443  0.95204561  0.60163834    -0.73540
O1115       O  0.60853320  0.00867888  0.97416108    -0.74000
O1116       O  0.56564924  0.89100508  0.94998469    -0.73910
O1117       O  0.98565286  0.87490420  0.91839013    -0.73700
C1118       C  0.92746258  0.52888435  0.85406329     0.78090
C1119       C  0.93564651  0.61178784  0.53457263     0.78580
C1120       C  0.85790120  0.92829871  0.52953887     0.77540
C1121       C  0.53616242  0.93246138  0.61026172     0.77910
C1122       C  0.61304557  0.54189769  0.93742731     0.79050
C1123       C  0.53372652  0.86105307  0.92625367     0.78100
Zn1124     Zn  0.72776537  0.92298892  0.69674729     1.49720
Zn1125     Zn  0.77705652  0.52828911  0.68456317     1.49360
Zn1126     Zn  0.66070575  0.51642232  0.74528021     1.49110
Zn1127     Zn  0.76104386  0.97105230  0.79909551     1.49480
O1128       O  0.73225217  0.98747371  0.73037556    -1.83170
O1129       O  0.76149624  0.91210939  0.62970938    -0.73800
O1130       O  0.72991020  0.59168752  0.66527663    -0.73620
O1131       O  0.60610017  0.96590119  0.72452666    -0.73140
O1132       O  0.79848332  0.98684628  0.61465909    -0.73820
O1133       O  0.64614590  0.91299374  0.67212682    -0.73420
O1134       O  0.65063098  0.57850260  0.70044380    -0.74000
O1135       O  0.71632590  0.00754745  0.84753647    -0.73390
O1136       O  0.84345747  0.54693380  0.73193906    -0.74150
O1137       O  0.64341064  0.54283926  0.82068225    -0.73540
O1138       O  0.82882781  0.50907147  0.80933199    -0.74000
O1139       O  0.76913811  0.89101235  0.81746413    -0.73910
O1140       O  0.78327712  0.87508999  0.73497038    -0.73700
C1141       C  0.78808751  0.94030546  0.60030546     0.78090
C1142       C  0.68240944  0.60641886  0.67454101     0.78580
C1143       C  0.60371055  0.93138075  0.68926441     0.77540
C1144       C  0.67593314  0.53450504  0.85741702     0.77910
C1145       C  0.85778957  0.53623488  0.77945520     0.79050
C1146       C  0.78375575  0.85954948  0.78215755     0.78100
Zn1147     Zn  0.69938469  0.72420127  0.91100773     1.49720
Zn1148     Zn  0.80390192  0.76784619  0.96597353     1.49360
Zn1149     Zn  0.69087773  0.77598172  0.52663886     1.49110
Zn1150     Zn  0.74598382  0.66700537  0.51493955     1.49480
O1151       O  0.73456172  0.73480087  0.98019802    -1.83170
O1152       O  0.74179015  0.75892238  0.85539896    -0.73800
O1153       O  0.81194736  0.83532835  0.50400319    -0.73620
O1154       O  0.62430185  0.79922847  0.98164262    -0.73140
O1155       O  0.81550108  0.79046192  0.88791034    -0.73820
O1156       O  0.63323038  0.76403901  0.90361965    -0.73420
O1157       O  0.73888943  0.84211465  0.54993634    -0.74000
O1158       O  0.70940332  0.65418476  0.58155876    -0.73390
O1159       O  0.86055234  0.72087225  0.99657653    -0.74150
O1160       O  0.66457582  0.72591550  0.58994585    -0.73540
O1161       O  0.82464462  0.65413361  0.53725527    -0.74000
O1162       O  0.70763920  0.61582634  0.97121937    -0.73910
O1163       O  0.67953267  0.64682437  0.89542264    -0.73700
C1164       C  0.78445529  0.78412339  0.84906261     0.78090
C1165       C  0.78350094  0.86124022  0.53487377     0.78580
C1166       C  0.60712213  0.79147580  0.93485712     0.77540
C1167       C  0.67760934  0.68073443  0.60759973     0.77910
C1168       C  0.86525298  0.68135767  0.52666906     0.79050
C1169       C  0.68486354  0.60892049  0.92726122     0.78100
Zn1170     Zn  0.55235936  0.76409786  0.74765406     1.49720
Zn1171     Zn  0.93995008  0.77560234  0.68885016     1.49360
Zn1172     Zn  0.99482911  0.66314560  0.70401564     1.49110
Zn1173     Zn  0.94686842  0.71935241  0.80344970     1.49480
O1174       O  0.98275507  0.73199515  0.73553376    -1.83170
O1175       O  0.56406837  0.82986645  0.70460591    -0.73800
O1176       O  0.91936124  0.72875383  0.62423951    -0.73620
O1177       O  0.57067443  0.65291178  0.67563380    -0.73140
O1178       O  0.98626881  0.84176481  0.66660564    -0.73820
O1179       O  0.60849592  0.71418211  0.72149851    -0.73420
O1180       O  0.94932803  0.65008515  0.63955770    -0.74000
O1181       O  0.91800287  0.64136378  0.81000140    -0.73390
O1182       O  0.87188289  0.79873786  0.73015697    -0.74150
O1183       O  0.97623759  0.60778197  0.75729651    -0.73540
O1184       O  0.88188106  0.76181951  0.80820746    -0.74000
O1185       O  0.99201117  0.75191444  0.86244963    -0.73910
O1186       O  0.56092331  0.78946587  0.82493192    -0.73700
C1187       C  0.53340032  0.85768557  0.67691449     0.78090
C1188       C  0.92662744  0.68194135  0.60915670     0.78580
C1189       C  0.61209230  0.67713921  0.68862659     0.77540
C1190       C  0.93656498  0.60157534  0.78710726     0.77910
C1191       C  0.85522458  0.78967553  0.77688064     0.79050
C1192       C  0.53300005  0.78099699  0.86565743     0.78100
C1193       C  0.79075610  0.00017433  0.98858663    -0.11310
C1194       C  0.76870293  0.95427321  0.50918878     0.05690
C1195       C  0.71728260  0.94159912  0.49455240    -0.06600
C1196       C  0.69606458  0.96577350  0.95168736    -0.07340
C1197       C  0.70958093  0.51760586  0.94328661    -0.01900
C1198       C  0.76319312  0.53082211  0.95357031     0.04920
N1199       N  0.79111663  0.57232586  0.92767851     0.67430
H1200       H  0.82971888  0.51277907  0.99932013     0.16330
H1201       H  0.66098609  0.94940958  0.93434590     0.16040
N1202       N  0.68140427  0.92074413  0.53174979     0.75130
O1203       O  0.83174905  0.59149974  0.94828251    -0.38320
O1204       O  0.78070759  0.58430242  0.88101365    -0.38260
O1205       O  0.67575173  0.94342381  0.57469043    -0.38970
O1206       O  0.64690805  0.88914643  0.51729560    -0.39030
C1207       C  0.53083178  0.71864204  0.96366233    -0.11310
C1208       C  0.51959633  0.77151733  0.96087591     0.05690
C1209       C  0.98535791  0.79177130  0.99880892    -0.06600
C1210       C  0.95205163  0.75860956  0.52472722    -0.07340
C1211       C  0.96134609  0.70518049  0.52507251    -0.01900
C1212       C  0.00975575  0.68920609  0.00334271     0.04920
N1213       N  0.04188603  0.65009685  0.02710522     0.67430
H1214       H  0.56145900  0.70229704  0.93977520     0.16330
H1215       H  0.92049473  0.77549519  0.54683024     0.16040
N1216       N  0.99609783  0.83936041  0.02368985     0.75130
O1217       O  0.07951610  0.63082092  0.00216439    -0.38320
O1218       O  0.04276452  0.64670040  0.57608723    -0.38260
O1219       O  0.95872402  0.86757968  0.03807016    -0.38970
O1220       O  0.04016990  0.84372045  0.54574133    -0.39030
C1221       C  0.95837096  0.52238795  0.71170374    -0.11310
C1222       C  0.94314064  0.50613156  0.76138018     0.05690
C1223       C  0.95205347  0.95339216  0.77388760    -0.06600
C1224       C  0.98902523  0.92646181  0.74622259    -0.07340
C1225       C  0.51211404  0.94796402  0.70138537    -0.01900
C1226       C  0.50207978  0.50085650  0.68958690     0.04920
N1227       N  0.53191066  0.53170501  0.65269912     0.67430
H1228       H  0.94152219  0.55660610  0.69413557     0.16330
H1229       H  0.99637208  0.88720201  0.75842689     0.16040
N1230       N  0.91359570  0.92267752  0.79987707     0.75130
O1231       O  0.51097227  0.57030365  0.63155132    -0.38320
O1232       O  0.57998909  0.52430167  0.64433482    -0.38260
O1233       O  0.86816016  0.92224727  0.78076774    -0.38970
O1234       O  0.92751506  0.88565807  0.82906394    -0.39030
C1235       C  0.70202693  0.74567310  0.69131476    -0.11310
C1236       C  0.70723701  0.69397441  0.69791998     0.05690
C1237       C  0.74139228  0.67684279  0.73836825    -0.06600
C1238       C  0.77503762  0.71216397  0.76223881    -0.07340
C1239       C  0.76621970  0.76585837  0.75689899    -0.02020
C1240       C  0.72553550  0.78034103  0.72237254     0.04920
N1241       N  0.70477923  0.82943959  0.71445223     0.67430
H1242       H  0.66997094  0.76027828  0.66803156     0.16330
H1243       H  0.80215890  0.69794215  0.79171686     0.16040
N1244       N  0.73036436  0.63100673  0.76684220     0.75130
O1245       O  0.70231618  0.84309179  0.66706243    -0.38320
O1246       O  0.67354031  0.84778483  0.74763221    -0.38260
O1247       O  0.76711239  0.60126468  0.77986396    -0.38970
O1248       O  0.68710340  0.62803236  0.79027022    -0.39030
loop_ 
_geom_bond_atom_site_label_1 
_geom_bond_atom_site_label_2 
_geom_bond_distance 
_geom_bond_site_symmetry_2 
_ccdc_geom_bond_type 
C1           C54   1.554       .  S
C1           C72   1.559       .  S
C1           C99   1.545       .  S
C1          C147   1.543       .  S
C2           C26   1.553       .  S
C2           C53   1.530       .  S
C2           C98   1.595       .  S
C2          C130   1.538       .  S
C3           C31   1.556       .  S
C3           C74   1.551       .  S
C3          C100   1.571       .  S
C3          C116   1.526       .  S
C4           C50   1.530       .  S
C4           C75   1.577       .  S
C4           C97   1.580       .  S
C4          C144   1.528       .  S
C5           C28   1.539       .  S
C5           C49   1.549       .  S
C5           C73   1.589       .  S
C5          C102   1.518       .  S
C6           C27   1.571       .  S
C6           C76   1.566       .  S
C6           C96   1.561       .  S
C6          C119   1.549       .  S
C7           C30   1.569       .  S
C7           C52   1.553       .  S
C7           C77   1.549       .  S
C7          C105   1.553       .  S
C8           C29   1.559       .  S
C8           C51   1.564       .  S
C8           C95   1.563       .  S
C8          C133   1.531       .  S
Zn9          O13   1.955       .  S
Zn9          O14   2.119       .  S
Zn9          O18   2.112       .  S
Zn9          O25   2.132       .  S
Zn10        O325   1.978   1_545  S
Zn10         O15   2.037       .  S
Zn10         O17   1.944       .  S
Zn10        O645   2.119       .  S
Zn11        O169   1.961   1_554  S
Zn11         O16   1.949       .  S
Zn11         O22   1.994       .  S
Zn11        O331   2.136       .  S
Zn12        O637   1.982   1_455  S
Zn12         O23   2.012       .  S
Zn12         O24   2.073       .  S
Zn12        O176   2.115       .  S
O13        Zn322   1.978       .  S
O13        Zn167   1.961       .  S
O13        Zn636   1.982       .  S
O14         C338   1.286       .  A
O15         C183   1.281       .  A
O16          C28   1.263       .  A
O17          C26   1.261       .  A
O18         C184   1.289       .  A
O19        Zn323   2.136   1_545  S
O19          C27   1.284       .  A
O20        Zn168   2.115   1_554  S
O20          C29   1.272       .  A
O21        Zn634   2.119   1_455  S
O21          C30   1.278       .  A
O22         C653   1.275       .  A
O23         C342   1.275       .  A
O24          C31   1.279       .  A
O25         C655   1.291       .  A
C26         O326   1.286   1_545  A
C27         O171   1.281   1_554  A
C28         O174   1.289   1_554  A
C29         O646   1.275   1_455  A
C30         O335   1.275       .  A
C31         O649   1.291   1_455  A
Zn32         O36   1.892       .  S
Zn32         O37   1.945       .  S
Zn32         O41   2.185       .  S
Zn32         O48   2.115       .  S
Zn33        O348   1.945   1_545  S
Zn33         O38   2.093       .  S
Zn33         O44   2.133       .  S
Zn33        O352   2.168   1_545  S
Zn34        O348   2.012   1_545  S
Zn34         O42   1.986       .  S
Zn34         O45   2.102       .  S
Zn34        O351   1.983   1_545  S
Zn35         O36   1.946       .  S
Zn35         O43   1.942       .  S
Zn35         O47   2.136       .  S
Zn35        O358   2.004       .  S
O36        Zn345   1.945       .  S
O36        Zn346   2.012       .  S
O37          C49   1.246       .  A
O38          C50   1.293       .  A
O39        Zn346   1.983       .  S
O39          C51   1.278       .  A
O40        Zn345   2.168       .  S
O40          C49   1.292       .  A
O41          C51   1.264       .  A
O42          C50   1.270       .  A
O43         C364   1.273       .  A
O44          C53   1.296       .  A
O45          C52   1.267       .  A
O46        Zn347   2.004   1_545  S
O46          C53   1.272       .  A
O47          C54   1.280       .  A
O48          C54   1.270       .  A
C52         O355   1.273       .  A
Zn55         O59   2.001       .  S
Zn55         O60   1.997       .  S
Zn55         O64   1.986       .  S
Zn55         O71   2.111       .  S
Zn56         O59   1.995       .  S
Zn56         O63   2.099       .  S
Zn56         O67   2.040       .  S
Zn56        O217   2.021       .  S
Zn57        O215   1.958   1_554  S
Zn57         O65   2.191       .  S
Zn57         O68   2.175       .  S
Zn57        O218   2.130   1_554  S
Zn58        O215   1.986   1_554  S
Zn58         O66   1.972       .  S
Zn58         O69   2.107       .  S
Zn58        O226   1.995   1_554  S
O59        Zn213   1.958       .  S
O59        Zn214   1.986       .  S
O60          C72   1.277       .  A
O61        Zn212   2.021   1_554  S
O61          C73   1.272       .  A
O62        Zn213   2.130       .  S
O62          C74   1.290       .  A
O63          C72   1.279       .  A
O64          C74   1.267       .  A
O65          C73   1.298       .  A
O66          C75   1.261       .  A
O67         C232   1.282       .  A
O68          C75   1.296       .  A
O69          C76   1.280       .  A
O70        Zn214   1.995       .  S
O70          C77   1.277       .  A
O71          C77   1.279       .  A
C76         O223   1.282   1_554  A
Zn78        O706   1.981   1_455  S
Zn78         O83   2.045       .  S
Zn78         O87   2.050       .  S
Zn78         O94   2.100       .  S
Zn79         O82   1.966       .  S
Zn79         O84   2.124       .  S
Zn79         O86   2.155       .  S
Zn79         O90   2.125       .  S
Zn80         O82   1.992       .  S
Zn80         O88   2.041       .  S
Zn80         O91   2.029       .  S
Zn80        O709   2.085       .  S
Zn81         O82   1.992       .  S
Zn81         O89   2.157       .  S
Zn81         O92   1.996       .  S
Zn81         O93   2.078       .  S
O82        Zn702   1.981       .  S
O83          C95   1.273       .  A
O84          C96   1.292       .  A
O85        Zn704   2.085   1_455  S
O85          C97   1.271       .  A
O86         C719   1.295       .  A
O87          C97   1.287       .  A
O88          C96   1.269       .  A
O89          C98   1.284       .  A
O90          C99   1.290       .  A
O91          C98   1.278       .  A
O92          C99   1.270       .  A
O93         C724   1.289       .  A
O94         C100   1.281       .  A
C95         O710   1.295   1_455  A
C100        O717   1.289   1_455  A
C101        C258   1.415       .  A
C101        C418   1.383       .  A
C101        H420   1.079       .  S
C102        C103   1.400   1_554  A
C102        C257   1.415   1_554  A
C103        C260   1.368       .  A
C103        N110   1.425   1_556  S
C104        C259   1.368       .  A
C104        C417   1.403       .  A
C104        H109   1.083       .  S
C105        C106   1.431       .  A
C105        C416   1.403   1_545  A
C106        C413   1.383       .  A
C106        N107   1.447       .  S
N107        O111   1.262       .  A
N107        O112   1.258       .  A
H108        C413   1.079       .  S
N110        O113   1.260       .  A
N110        O114   1.257       .  A
C115        C116   1.404       .  A
C115        C744   1.375       .  A
C115        H122   1.083       .  S
C116        C741   1.414   1_455  A
C117        C740   1.414       .  A
C117        C274   1.375       .  A
C117        N124   1.420       .  S
C118        C119   1.407       .  A
C118        C273   1.375   1_554  A
C118        H123   1.081       .  S
C119        C276   1.419       .  A
C120        C739   1.375       .  A
C120        C275   1.419       .  A
C120        N121   1.434       .  S
N121        O125   1.261       .  A
N121        O282   1.256       .  A
N124        O127   1.261       .  A
N124        O284   1.259       .  A
O126        N277   1.256       .  A
O128        N280   1.259       .  A
C129        C130   1.392       .  A
C129        C758   1.373       .  A
C129        H136   1.081       .  S
C130        C443   1.422   1_545  A
C131        C132   1.377       .  A
C131        C442   1.422       .  A
C131        N138   1.425       .  S
C132        C757   1.402       .  A
C132        H137   1.080       .  S
C133        C756   1.402   1_455  A
C133        C446   1.426       .  A
C134        C753   1.373   1_455  A
C134        C445   1.426   1_545  A
C134        N135   1.449       .  S
N135        O139   1.253       .  A
N135        O140   1.259       .  A
N138        O141   1.254       .  A
N138        O142   1.262       .  A
C143        C144   1.358       .  A
C143        C148   1.344       .  A
C143        H150   1.076       .  S
C144        C145   1.418       .  A
C145        C146   1.396       .  A
C145        N152   1.418       .  S
C146        C147   1.417       .  A
C146        H151   1.083       .  S
C147        C148   1.408       .  A
C148        N149   1.394       .  S
N149        O153   1.262       .  A
N149        O154   1.263       .  A
N152        O155   1.256       .  A
N152        O156   1.259       .  A
C157        C210   1.554       .  S
C157        C228   1.559       .  S
C157        C255   1.545       .  S
C157        C303   1.543       .  S
C158        C182   1.553       .  S
C158        C209   1.530       .  S
C158        C254   1.595       .  S
C158        C286   1.538       .  S
C159        C187   1.556       .  S
C159        C230   1.551       .  S
C159        C256   1.571       .  S
C159        C272   1.526       .  S
C160        C206   1.530       .  S
C160        C231   1.577       .  S
C160        C253   1.580       .  S
C160        C300   1.528       .  S
C161        C184   1.539       .  S
C161        C205   1.549       .  S
C161        C229   1.589       .  S
C161        C258   1.518       .  S
C162        C183   1.571       .  S
C162        C232   1.566       .  S
C162        C252   1.561       .  S
C162        C275   1.549       .  S
C163        C186   1.569       .  S
C163        C208   1.553       .  S
C163        C233   1.549       .  S
C163        C261   1.553       .  S
C164        C185   1.559       .  S
C164        C207   1.564       .  S
C164        C251   1.563       .  S
C164        C289   1.531       .  S
Zn165       O169   1.955       .  S
Zn165       O170   2.119       .  S
Zn165       O174   2.112       .  S
Zn165       O181   2.132       .  S
Zn166       O481   1.978   1_545  S
Zn166       O171   2.037       .  S
Zn166       O173   1.944       .  S
Zn166       O801   2.119       .  S
Zn167       O172   1.949       .  S
Zn167       O487   2.136       .  S
Zn167       O178   1.994       .  S
Zn168       O793   1.982   1_455  S
Zn168       O179   2.012       .  S
Zn168       O180   2.073       .  S
O169       Zn478   1.978       .  S
O169       Zn792   1.982       .  S
O170        C494   1.286       .  A
O172        C184   1.263       .  A
O173        C182   1.261       .  A
O175       Zn479   2.136   1_545  S
O175        C183   1.284       .  A
O176        C185   1.272       .  A
O177       Zn790   2.119   1_455  S
O177        C186   1.278       .  A
O178        C809   1.275       .  A
O179        C498   1.275       .  A
O180        C187   1.279       .  A
O181        C811   1.291       .  A
C182        O482   1.286   1_545  A
C185        O802   1.275   1_455  A
C186        O491   1.275       .  A
C187        O805   1.291   1_455  A
Zn188       O192   1.892       .  S
Zn188       O193   1.945       .  S
Zn188       O197   2.185       .  S
Zn188       O204   2.115       .  S
Zn189       O504   1.945   1_545  S
Zn189       O194   2.093       .  S
Zn189       O508   2.168   1_545  S
Zn189       O200   2.133       .  S
Zn190       O504   2.012   1_545  S
Zn190       O507   1.983   1_545  S
Zn190       O198   1.986       .  S
Zn190       O201   2.102       .  S
Zn191       O192   1.946       .  S
Zn191       O199   1.942       .  S
Zn191       O514   2.004       .  S
Zn191       O203   2.136       .  S
O192       Zn501   1.945       .  S
O192       Zn502   2.012       .  S
O193        C205   1.246       .  A
O194        C206   1.293       .  A
O195       Zn502   1.983       .  S
O195        C207   1.278       .  A
O196       Zn501   2.168       .  S
O196        C205   1.292       .  A
O197        C207   1.264       .  A
O198        C206   1.270       .  A
O199        C520   1.273       .  A
O200        C209   1.296       .  A
O201        C208   1.267       .  A
O202       Zn503   2.004   1_545  S
O202        C209   1.272       .  A
O203        C210   1.280       .  A
O204        C210   1.270       .  A
C208        O511   1.273       .  A
Zn211       O215   2.001       .  S
Zn211       O216   1.997       .  S
Zn211       O220   1.986       .  S
Zn211       O227   2.111       .  S
Zn212       O215   1.995       .  S
Zn212       O219   2.099       .  S
Zn212       O223   2.040       .  S
Zn213       O221   2.191       .  S
Zn213       O224   2.175       .  S
Zn214       O222   1.972       .  S
Zn214       O225   2.107       .  S
O216        C228   1.277       .  A
O217        C229   1.272       .  A
O218        C230   1.290       .  A
O219        C228   1.279       .  A
O220        C230   1.267       .  A
O221        C229   1.298       .  A
O222        C231   1.261       .  A
O224        C231   1.296       .  A
O225        C232   1.280       .  A
O226        C233   1.277       .  A
O227        C233   1.279       .  A
Zn234       O862   1.981   1_455  S
Zn234       O239   2.045       .  S
Zn234       O243   2.050       .  S
Zn234       O250   2.100       .  S
Zn235       O238   1.966       .  S
Zn235       O240   2.124       .  S
Zn235       O242   2.155       .  S
Zn235       O246   2.125       .  S
Zn236       O238   1.992       .  S
Zn236       O865   2.085       .  S
Zn236       O244   2.041       .  S
Zn236       O247   2.029       .  S
Zn237       O238   1.992       .  S
Zn237       O245   2.157       .  S
Zn237       O248   1.996       .  S
Zn237       O249   2.078       .  S
O238       Zn858   1.981       .  S
O239        C251   1.273       .  A
O240        C252   1.292       .  A
O241       Zn860   2.085   1_455  S
O241        C253   1.271       .  A
O242        C875   1.295       .  A
O243        C253   1.287       .  A
O244        C252   1.269       .  A
O245        C254   1.284       .  A
O246        C255   1.290       .  A
O247        C254   1.278       .  A
O248        C255   1.270       .  A
O249        C880   1.289       .  A
O250        C256   1.281       .  A
C251        O866   1.295   1_455  A
C256        O873   1.289   1_455  A
C257        C574   1.383       .  A
C257        H576   1.079       .  S
C258        C259   1.400       .  A
C259        N266   1.425       .  S
C260        C573   1.403       .  A
C260        H265   1.083       .  S
C261        C572   1.403   1_545  A
C261        C262   1.431       .  A
C262        C569   1.383       .  A
C262        N263   1.447       .  S
N263        O267   1.262       .  A
N263        O268   1.258       .  A
H264        C569   1.079       .  S
N266        O269   1.260       .  A
N266        O270   1.257       .  A
C271        C272   1.404       .  A
C271        C900   1.375   1_556  A
C271        H278   1.083       .  S
C272        C897   1.414   1_455  A
C273        C896   1.414       .  A
C273        N280   1.420   1_556  S
C274        C275   1.407       .  A
C274        H279   1.081       .  S
C276        C895   1.375   1_554  A
C276        N277   1.434       .  S
N277        O281   1.261       .  A
N280        O283   1.261       .  A
C285        C286   1.392       .  A
C285        C914   1.373       .  A
C285        H292   1.081       .  S
C286        C599   1.422   1_545  A
C287        C598   1.422       .  A
C287        C288   1.377       .  A
C287        N294   1.425       .  S
C288        C913   1.402       .  A
C288        H293   1.080       .  S
C289        C912   1.402   1_455  A
C289        C602   1.426       .  A
C290        C909   1.373   1_455  A
C290        C601   1.426   1_545  A
C290        N291   1.449       .  S
N291        O295   1.253       .  A
N291        O296   1.259       .  A
N294        O297   1.254       .  A
N294        O298   1.262       .  A
C299        C300   1.358       .  A
C299        C304   1.344       .  A
C299        H306   1.076       .  S
C300        C301   1.418       .  A
C301        C302   1.396       .  A
C301        N308   1.418       .  S
C302        C303   1.417       .  A
C302        H307   1.083       .  S
C303        C304   1.408       .  A
C304        N305   1.394       .  S
N305        O309   1.262       .  A
N305        O310   1.263       .  A
N308        O311   1.256       .  A
N308        O312   1.259       .  A
C313        C366   1.554       .  S
C313        C384   1.559       .  S
C313        C411   1.545       .  S
C313        C459   1.543       .  S
C314        C338   1.553       .  S
C314        C365   1.530       .  S
C314        C410   1.595       .  S
C314        C442   1.538       .  S
C315        C343   1.556       .  S
C315        C386   1.551       .  S
C315        C412   1.571       .  S
C315        C428   1.526       .  S
C316        C362   1.530       .  S
C316        C387   1.577       .  S
C316        C409   1.580       .  S
C316        C456   1.528       .  S
C317        C340   1.539       .  S
C317        C361   1.549       .  S
C317        C385   1.589       .  S
C317        C414   1.518       .  S
C318        C339   1.571       .  S
C318        C388   1.566       .  S
C318        C408   1.561       .  S
C318        C431   1.549       .  S
C319        C342   1.569       .  S
C319        C364   1.553       .  S
C319        C389   1.549       .  S
C319        C417   1.553       .  S
C320        C341   1.559       .  S
C320        C363   1.564       .  S
C320        C407   1.563       .  S
C320        C445   1.531       .  S
Zn321       O325   1.955       .  S
Zn321       O326   2.119       .  S
Zn321       O330   2.112       .  S
Zn321       O337   2.132       .  S
Zn322       O327   2.037       .  S
Zn322       O329   1.944       .  S
Zn322       O957   2.119       .  S
Zn323       O481   1.961   1_554  S
Zn323       O328   1.949       .  S
Zn323       O334   1.994       .  S
Zn324       O949   1.982   1_455  S
Zn324       O488   2.115       .  S
Zn324       O335   2.012   1_565  S
Zn324       O336   2.073       .  S
O325       Zn479   1.961       .  S
O325       Zn948   1.982       .  S
O327        C495   1.281       .  A
O328        C340   1.263       .  A
O329        C338   1.261       .  A
O330        C496   1.289       .  A
O331        C339   1.284       .  A
O332       Zn480   2.115   1_554  S
O332        C341   1.272       .  A
O333       Zn946   2.119   1_455  S
O333        C342   1.278       .  A
O334        C965   1.275       .  A
O336        C343   1.279       .  A
O337        C967   1.291       .  A
C339        O483   1.281   1_554  A
C340        O486   1.289   1_554  A
C341        O958   1.275   1_455  A
C343        O961   1.291   1_455  A
Zn344       O348   1.892       .  S
Zn344       O349   1.945       .  S
Zn344       O353   2.185       .  S
Zn344       O360   2.115       .  S
Zn345       O350   2.093       .  S
Zn345       O356   2.133       .  S
Zn346       O354   1.986       .  S
Zn346       O357   2.102       .  S
Zn347       O348   1.946       .  S
Zn347       O355   1.942   1_565  S
Zn347       O359   2.136       .  S
O349        C361   1.246       .  A
O350        C362   1.293       .  A
O351        C363   1.278       .  A
O352        C361   1.292       .  A
O353        C363   1.264       .  A
O354        C362   1.270       .  A
O356        C365   1.296       .  A
O357        C364   1.267       .  A
O358        C365   1.272       .  A
O359        C366   1.280       .  A
O360        C366   1.270       .  A
Zn367       O371   2.001       .  S
Zn367       O372   1.997       .  S
Zn367       O376   1.986       .  S
Zn367       O383   2.111       .  S
Zn368       O371   1.995       .  S
Zn368       O529   2.021       .  S
Zn368       O375   2.099       .  S
Zn368       O379   2.040       .  S
Zn369       O527   1.958   1_554  S
Zn369       O530   2.130   1_554  S
Zn369       O377   2.191       .  S
Zn369       O380   2.175       .  S
Zn370       O527   1.986   1_554  S
Zn370       O378   1.972       .  S
Zn370       O381   2.107       .  S
Zn370       O538   1.995   1_554  S
O371       Zn525   1.958       .  S
O371       Zn526   1.986       .  S
O372        C384   1.277       .  A
O373       Zn524   2.021   1_554  S
O373        C385   1.272       .  A
O374       Zn525   2.130       .  S
O374        C386   1.290       .  A
O375        C384   1.279       .  A
O376        C386   1.267       .  A
O377        C385   1.298       .  A
O378        C387   1.261       .  A
O379        C544   1.282       .  A
O380        C387   1.296       .  A
O381        C388   1.280       .  A
O382       Zn526   1.995       .  S
O382        C389   1.277       .  A
O383        C389   1.279       .  A
C388        O535   1.282   1_554  A
Zn390      O1018   1.981   1_455  S
Zn390       O395   2.045       .  S
Zn390       O399   2.050       .  S
Zn390       O406   2.100       .  S
Zn391       O394   1.966       .  S
Zn391       O396   2.124       .  S
Zn391       O398   2.155       .  S
Zn391       O402   2.125       .  S
Zn392       O394   1.992       .  S
Zn392      O1021   2.085       .  S
Zn392       O400   2.041       .  S
Zn392       O403   2.029       .  S
Zn393       O394   1.992       .  S
Zn393       O401   2.157       .  S
Zn393       O404   1.996       .  S
Zn393       O405   2.078       .  S
O394      Zn1014   1.981       .  S
O395        C407   1.273       .  A
O396        C408   1.292       .  A
O397      Zn1016   2.085   1_455  S
O397        C409   1.271       .  A
O398       C1031   1.295       .  A
O399        C409   1.287       .  A
O400        C408   1.269       .  A
O401        C410   1.284       .  A
O402        C411   1.290       .  A
O403        C410   1.278       .  A
O404        C411   1.270       .  A
O405       C1036   1.289       .  A
O406        C412   1.281       .  A
C407       O1022   1.295   1_455  A
C412       O1029   1.289   1_455  A
C413        C570   1.415   1_545  A
C414        C569   1.415   1_564  A
C414        C415   1.400   1_554  A
C415        C572   1.368       .  A
C415        N422   1.425   1_556  S
C416        C571   1.368       .  A
C416        H421   1.083       .  S
C417        C418   1.431       .  A
C418        N419   1.447       .  S
N419        O423   1.262       .  A
N419        O424   1.258       .  A
N422        O425   1.260       .  A
N422        O426   1.257       .  A
C427        C428   1.404       .  A
C427       C1056   1.375       .  A
C427        H434   1.083       .  S
C428       C1053   1.414   1_455  A
C429       C1052   1.414       .  A
C429        C586   1.375       .  A
C429        N436   1.420       .  S
C430        C585   1.375   1_554  A
C430        C431   1.407       .  A
C430        H435   1.081       .  S
C431        C588   1.419       .  A
C432       C1051   1.375       .  A
C432        C587   1.419       .  A
C432        N433   1.434       .  S
N433        O437   1.261       .  A
N433        O594   1.256       .  A
N436        O439   1.261       .  A
N436        O596   1.259       .  A
O438        N589   1.256       .  A
O440        N592   1.259       .  A
C441        C442   1.392       .  A
C441       C1070   1.373       .  A
C441        H448   1.081       .  S
C443        C444   1.377       .  A
C443        N450   1.425       .  S
C444       C1069   1.402       .  A
C444        H449   1.080       .  S
C445       C1068   1.402   1_455  A
C446       C1065   1.373   1_455  A
C446        N447   1.449       .  S
N447        O451   1.253       .  A
N447        O452   1.259       .  A
N450        O453   1.254       .  A
N450        O454   1.262       .  A
C455        C456   1.358       .  A
C455        C460   1.344       .  A
C455        H462   1.076       .  S
C456        C457   1.418       .  A
C457        C458   1.396       .  A
C457        N464   1.418       .  S
C458        C459   1.417       .  A
C458        H463   1.083       .  S
C459        C460   1.408       .  A
C460        N461   1.394       .  S
N461        O465   1.262       .  A
N461        O466   1.263       .  A
N464        O467   1.256       .  A
N464        O468   1.259       .  A
C469        C522   1.554       .  S
C469        C540   1.559       .  S
C469        C567   1.545       .  S
C469        C615   1.543       .  S
C470        C494   1.553       .  S
C470        C521   1.530       .  S
C470        C566   1.595       .  S
C470        C598   1.538       .  S
C471        C499   1.556       .  S
C471        C542   1.551       .  S
C471        C568   1.571       .  S
C471        C584   1.526       .  S
C472        C518   1.530       .  S
C472        C543   1.577       .  S
C472        C565   1.580       .  S
C472        C612   1.528       .  S
C473        C496   1.539       .  S
C473        C517   1.549       .  S
C473        C541   1.589       .  S
C473        C570   1.518       .  S
C474        C495   1.571       .  S
C474        C544   1.566       .  S
C474        C564   1.561       .  S
C474        C587   1.549       .  S
C475        C498   1.569       .  S
C475        C520   1.553       .  S
C475        C545   1.549       .  S
C475        C573   1.553       .  S
C476        C497   1.559       .  S
C476        C519   1.564       .  S
C476        C563   1.563       .  S
C476        C601   1.531       .  S
Zn477       O481   1.955       .  S
Zn477       O482   2.119       .  S
Zn477       O486   2.112       .  S
Zn477       O493   2.132       .  S
Zn478       O483   2.037       .  S
Zn478       O485   1.944       .  S
Zn478      O1113   2.119       .  S
Zn479       O484   1.949       .  S
Zn479       O490   1.994       .  S
Zn480      O1105   1.982   1_455  S
Zn480       O491   2.012   1_565  S
Zn480       O492   2.073       .  S
O481      Zn1104   1.982       .  S
O484        C496   1.263       .  A
O485        C494   1.261       .  A
O487        C495   1.284       .  A
O488        C497   1.272       .  A
O489      Zn1102   2.119   1_455  S
O489        C498   1.278       .  A
O490       C1121   1.275       .  A
O492        C499   1.279       .  A
O493       C1123   1.291       .  A
C497       O1114   1.275   1_455  A
C499       O1117   1.291   1_455  A
Zn500       O504   1.892       .  S
Zn500       O505   1.945       .  S
Zn500       O509   2.185       .  S
Zn500       O516   2.115       .  S
Zn501       O506   2.093       .  S
Zn501       O512   2.133       .  S
Zn502       O510   1.986       .  S
Zn502       O513   2.102       .  S
Zn503       O504   1.946       .  S
Zn503       O511   1.942   1_565  S
Zn503       O515   2.136       .  S
O505        C517   1.246       .  A
O506        C518   1.293       .  A
O507        C519   1.278       .  A
O508        C517   1.292       .  A
O509        C519   1.264       .  A
O510        C518   1.270       .  A
O512        C521   1.296       .  A
O513        C520   1.267       .  A
O514        C521   1.272       .  A
O515        C522   1.280       .  A
O516        C522   1.270       .  A
Zn523       O527   2.001       .  S
Zn523       O528   1.997       .  S
Zn523       O532   1.986       .  S
Zn523       O539   2.111       .  S
Zn524       O527   1.995       .  S
Zn524       O531   2.099       .  S
Zn524       O535   2.040       .  S
Zn525       O533   2.191       .  S
Zn525       O536   2.175       .  S
Zn526       O534   1.972       .  S
Zn526       O537   2.107       .  S
O528        C540   1.277       .  A
O529        C541   1.272       .  A
O530        C542   1.290       .  A
O531        C540   1.279       .  A
O532        C542   1.267       .  A
O533        C541   1.298       .  A
O534        C543   1.261       .  A
O536        C543   1.296       .  A
O537        C544   1.280       .  A
O538        C545   1.277       .  A
O539        C545   1.279       .  A
Zn546      O1174   1.981   1_455  S
Zn546       O551   2.045       .  S
Zn546       O555   2.050       .  S
Zn546       O562   2.100       .  S
Zn547       O550   1.966       .  S
Zn547       O552   2.124       .  S
Zn547       O554   2.155       .  S
Zn547       O558   2.125       .  S
Zn548       O550   1.992       .  S
Zn548      O1177   2.085       .  S
Zn548       O556   2.041       .  S
Zn548       O559   2.029       .  S
Zn549       O550   1.992       .  S
Zn549       O557   2.157       .  S
Zn549       O560   1.996       .  S
Zn549       O561   2.078       .  S
O550      Zn1170   1.981       .  S
O551        C563   1.273       .  A
O552        C564   1.292       .  A
O553      Zn1172   2.085   1_455  S
O553        C565   1.271       .  A
O554       C1187   1.295       .  A
O555        C565   1.287       .  A
O556        C564   1.269       .  A
O557        C566   1.284       .  A
O558        C567   1.290       .  A
O559        C566   1.278       .  A
O560        C567   1.270       .  A
O561       C1192   1.289       .  A
O562        C568   1.281       .  A
C563       O1178   1.295   1_455  A
C568       O1185   1.289   1_455  A
C570        C571   1.400       .  A
C571        N578   1.425       .  S
C572        H577   1.083       .  S
C573        C574   1.431       .  A
C574        N575   1.447       .  S
N575        O579   1.262       .  A
N575        O580   1.258       .  A
N578        O581   1.260       .  A
N578        O582   1.257       .  A
C583        C584   1.404       .  A
C583       C1212   1.375   1_556  A
C583        H590   1.083       .  S
C584       C1209   1.414   1_455  A
C585       C1208   1.414       .  A
C585        N592   1.420   1_556  S
C586        C587   1.407       .  A
C586        H591   1.081       .  S
C588       C1207   1.375   1_554  A
C588        N589   1.434       .  S
N589        O593   1.261       .  A
N592        O595   1.261       .  A
C597        C598   1.392       .  A
C597       C1226   1.373       .  A
C597        H604   1.081       .  S
C599        C600   1.377       .  A
C599        N606   1.425       .  S
C600       C1225   1.402       .  A
C600        H605   1.080       .  S
C601       C1224   1.402   1_455  A
C602       C1221   1.373   1_455  A
C602        N603   1.449       .  S
N603        O607   1.253       .  A
N603        O608   1.259       .  A
N606        O609   1.254       .  A
N606        O610   1.262       .  A
C611        C612   1.358       .  A
C611        C616   1.344       .  A
C611        H618   1.076       .  S
C612        C613   1.418       .  A
C613        C614   1.396       .  A
C613        N620   1.418       .  S
C614        C615   1.417       .  A
C614        H619   1.083       .  S
C615        C616   1.408       .  A
C616        N617   1.394       .  S
N617        O621   1.262       .  A
N617        O622   1.263       .  A
N620        O623   1.256       .  A
N620        O624   1.259       .  A
C625        C678   1.554       .  S
C625        C696   1.559       .  S
C625        C723   1.545       .  S
C625        C771   1.543       .  S
C626        C650   1.553       .  S
C626        C677   1.530       .  S
C626        C722   1.595       .  S
C626        C754   1.538       .  S
C627        C655   1.556       .  S
C627        C698   1.551       .  S
C627        C724   1.571       .  S
C627        C740   1.526       .  S
C628        C674   1.530       .  S
C628        C699   1.577       .  S
C628        C721   1.580       .  S
C628        C768   1.528       .  S
C629        C652   1.539       .  S
C629        C673   1.549       .  S
C629        C697   1.589       .  S
C629        C726   1.518       .  S
C630        C651   1.571       .  S
C630        C700   1.566       .  S
C630        C720   1.561       .  S
C630        C743   1.549       .  S
C631        C654   1.569       .  S
C631        C676   1.553       .  S
C631        C701   1.549       .  S
C631        C729   1.553       .  S
C632        C653   1.559       .  S
C632        C675   1.564       .  S
C632        C719   1.563       .  S
C632        C757   1.531       .  S
Zn633       O637   1.955       .  S
Zn633       O638   2.119       .  S
Zn633       O642   2.112       .  S
Zn633       O649   2.132       .  S
Zn634       O949   1.978   1_545  S
Zn634       O639   2.037       .  S
Zn634       O641   1.944       .  S
Zn635       O793   1.961   1_554  S
Zn635       O640   1.949       .  S
Zn635       O955   2.136       .  S
Zn635       O646   1.994       .  S
Zn636       O800   2.115       .  S
Zn636       O647   2.012       .  S
Zn636       O648   2.073       .  S
O637       Zn946   1.978       .  S
O637       Zn791   1.961       .  S
O638        C962   1.286       .  A
O639        C807   1.281       .  A
O640        C652   1.263       .  A
O641        C650   1.261       .  A
O642        C808   1.289       .  A
O643       Zn947   2.136   1_545  S
O643        C651   1.284       .  A
O644       Zn792   2.115   1_554  S
O644        C653   1.272       .  A
O645        C654   1.278       .  A
O647        C966   1.275       .  A
O648        C655   1.279       .  A
C650        O950   1.286   1_545  A
C651        O795   1.281   1_554  A
C652        O798   1.289   1_554  A
C654        O959   1.275       .  A
Zn656       O660   1.892       .  S
Zn656       O661   1.945       .  S
Zn656       O665   2.185       .  S
Zn656       O672   2.115       .  S
Zn657       O972   1.945   1_545  S
Zn657       O662   2.093       .  S
Zn657       O976   2.168   1_545  S
Zn657       O668   2.133       .  S
Zn658       O972   2.012   1_545  S
Zn658       O975   1.983   1_545  S
Zn658       O666   1.986       .  S
Zn658       O669   2.102       .  S
Zn659       O660   1.946       .  S
Zn659       O667   1.942       .  S
Zn659       O982   2.004       .  S
Zn659       O671   2.136       .  S
O660       Zn969   1.945       .  S
O660       Zn970   2.012       .  S
O661        C673   1.246       .  A
O662        C674   1.293       .  A
O663       Zn970   1.983       .  S
O663        C675   1.278       .  A
O664       Zn969   2.168       .  S
O664        C673   1.292       .  A
O665        C675   1.264       .  A
O666        C674   1.270       .  A
O667        C988   1.273       .  A
O668        C677   1.296       .  A
O669        C676   1.267       .  A
O670       Zn971   2.004   1_545  S
O670        C677   1.272       .  A
O671        C678   1.280       .  A
O672        C678   1.270       .  A
C676        O979   1.273       .  A
Zn679       O683   2.001       .  S
Zn679       O684   1.997       .  S
Zn679       O688   1.986       .  S
Zn679       O695   2.111       .  S
Zn680       O683   1.995       .  S
Zn680       O841   2.021       .  S
Zn680       O687   2.099       .  S
Zn680       O691   2.040       .  S
Zn681       O839   1.958   1_554  S
Zn681       O842   2.130   1_554  S
Zn681       O689   2.191       .  S
Zn681       O692   2.175       .  S
Zn682       O839   1.986   1_554  S
Zn682       O690   1.972       .  S
Zn682       O693   2.107       .  S
Zn682       O850   1.995   1_554  S
O683       Zn837   1.958       .  S
O683       Zn838   1.986       .  S
O684        C696   1.277       .  A
O685       Zn836   2.021   1_554  S
O685        C697   1.272       .  A
O686       Zn837   2.130       .  S
O686        C698   1.290       .  A
O687        C696   1.279       .  A
O688        C698   1.267       .  A
O689        C697   1.298       .  A
O690        C699   1.261       .  A
O691        C856   1.282       .  A
O692        C699   1.296       .  A
O693        C700   1.280       .  A
O694       Zn838   1.995       .  S
O694        C701   1.277       .  A
O695        C701   1.279       .  A
C700        O847   1.282   1_554  A
Zn702       O707   2.045       .  S
Zn702       O711   2.050       .  S
Zn702       O718   2.100       .  S
Zn703       O706   1.966       .  S
Zn703       O708   2.124       .  S
Zn703       O710   2.155       .  S
Zn703       O714   2.125       .  S
Zn704       O706   1.992       .  S
Zn704       O712   2.041       .  S
Zn704       O715   2.029       .  S
Zn705       O706   1.992       .  S
Zn705       O713   2.157       .  S
Zn705       O716   1.996       .  S
Zn705       O717   2.078       .  S
O707        C719   1.273       .  A
O708        C720   1.292       .  A
O709        C721   1.271       .  A
O711        C721   1.287       .  A
O712        C720   1.269       .  A
O713        C722   1.284       .  A
O714        C723   1.290       .  A
O715        C722   1.278       .  A
O716        C723   1.270       .  A
O718        C724   1.281       .  A
C725        C882   1.415       .  A
C725       C1042   1.383       .  A
C725       H1044   1.079       .  S
C726        C881   1.415   1_554  A
C726        C727   1.400   1_554  A
C727        C884   1.368       .  A
C727        N734   1.425   1_556  S
C728        C883   1.368       .  A
C728       C1041   1.403       .  A
C728        H733   1.083       .  S
C729       C1040   1.403   1_545  A
C729        C730   1.431       .  A
C730       C1037   1.383       .  A
C730        N731   1.447       .  S
N731        O735   1.262       .  A
N731        O736   1.258       .  A
H732       C1037   1.079       .  S
N734        O737   1.260       .  A
N734        O738   1.257       .  A
C739        C740   1.404       .  A
C739        H746   1.083       .  S
C741        C898   1.375       .  A
C741        N748   1.420       .  S
C742        C897   1.375   1_554  A
C742        C743   1.407       .  A
C742        H747   1.081       .  S
C743        C900   1.419   1_655  A
C744        C899   1.419   1_455  A
C744        N745   1.434       .  S
N745        O749   1.261       .  A
N745        O906   1.256       .  A
N748        O751   1.261       .  A
N748        O908   1.259   1_655  A
O750        N901   1.256       .  A
O752        N904   1.259   1_455  A
C753        C754   1.392       .  A
C753        H760   1.081       .  S
C754       C1067   1.422   1_545  A
C755       C1066   1.422       .  A
C755        C756   1.377       .  A
C755        N762   1.425       .  S
C756        H761   1.080       .  S
C757       C1070   1.426       .  A
C758       C1069   1.426   1_545  A
C758        N759   1.449       .  S
N759        O763   1.253       .  A
N759        O764   1.259       .  A
N762        O765   1.254       .  A
N762        O766   1.262       .  A
C767        C768   1.358       .  A
C767        C772   1.344       .  A
C767        H774   1.076       .  S
C768        C769   1.418       .  A
C769        C770   1.396       .  A
C769        N776   1.418       .  S
C770        C771   1.417       .  A
C770        H775   1.083       .  S
C771        C772   1.408       .  A
C772        N773   1.394       .  S
N773        O777   1.262       .  A
N773        O778   1.263       .  A
N776        O779   1.256       .  A
N776        O780   1.259       .  A
C781        C834   1.554       .  S
C781        C852   1.559       .  S
C781        C879   1.545       .  S
C781        C927   1.543       .  S
C782        C806   1.553       .  S
C782        C833   1.530       .  S
C782        C878   1.595       .  S
C782        C910   1.538       .  S
C783        C811   1.556       .  S
C783        C854   1.551       .  S
C783        C880   1.571       .  S
C783        C896   1.526       .  S
C784        C830   1.530       .  S
C784        C855   1.577       .  S
C784        C877   1.580       .  S
C784        C924   1.528       .  S
C785        C808   1.539       .  S
C785        C829   1.549       .  S
C785        C853   1.589       .  S
C785        C882   1.518       .  S
C786        C807   1.571       .  S
C786        C856   1.566       .  S
C786        C876   1.561       .  S
C786        C899   1.549       .  S
C787        C810   1.569       .  S
C787        C832   1.553       .  S
C787        C857   1.549       .  S
C787        C885   1.553       .  S
C788        C809   1.559       .  S
C788        C831   1.564       .  S
C788        C875   1.563       .  S
C788        C913   1.531       .  S
Zn789       O793   1.955       .  S
Zn789       O794   2.119       .  S
Zn789       O798   2.112       .  S
Zn789       O805   2.132       .  S
Zn790      O1105   1.978   1_545  S
Zn790       O795   2.037       .  S
Zn790       O797   1.944       .  S
Zn791       O796   1.949       .  S
Zn791      O1111   2.136       .  S
Zn791       O802   1.994       .  S
Zn792       O803   2.012       .  S
Zn792       O804   2.073       .  S
O793      Zn1102   1.978       .  S
O794       C1118   1.286       .  A
O796        C808   1.263       .  A
O797        C806   1.261       .  A
O799      Zn1103   2.136   1_545  S
O799        C807   1.284       .  A
O800        C809   1.272       .  A
O801        C810   1.278       .  A
O803       C1122   1.275       .  A
O804        C811   1.279       .  A
C806       O1106   1.286   1_545  A
C810       O1115   1.275       .  A
Zn812       O816   1.892       .  S
Zn812       O817   1.945       .  S
Zn812       O821   2.185       .  S
Zn812       O828   2.115       .  S
Zn813      O1128   1.945   1_545  S
Zn813       O818   2.093       .  S
Zn813      O1132   2.168   1_545  S
Zn813       O824   2.133       .  S
Zn814      O1128   2.012   1_545  S
Zn814      O1131   1.983   1_545  S
Zn814       O822   1.986       .  S
Zn814       O825   2.102       .  S
Zn815       O816   1.946       .  S
Zn815       O823   1.942       .  S
Zn815      O1138   2.004       .  S
Zn815       O827   2.136       .  S
O816      Zn1125   1.945       .  S
O816      Zn1126   2.012       .  S
O817        C829   1.246       .  A
O818        C830   1.293       .  A
O819      Zn1126   1.983       .  S
O819        C831   1.278       .  A
O820      Zn1125   2.168       .  S
O820        C829   1.292       .  A
O821        C831   1.264       .  A
O822        C830   1.270       .  A
O823       C1144   1.273       .  A
O824        C833   1.296       .  A
O825        C832   1.267       .  A
O826      Zn1127   2.004   1_545  S
O826        C833   1.272       .  A
O827        C834   1.280       .  A
O828        C834   1.270       .  A
C832       O1135   1.273       .  A
Zn835       O839   2.001       .  S
Zn835       O840   1.997       .  S
Zn835       O844   1.986       .  S
Zn835       O851   2.111       .  S
Zn836       O839   1.995       .  S
Zn836       O843   2.099       .  S
Zn836       O847   2.040       .  S
Zn837       O845   2.191       .  S
Zn837       O848   2.175       .  S
Zn838       O846   1.972       .  S
Zn838       O849   2.107       .  S
O840        C852   1.277       .  A
O841        C853   1.272       .  A
O842        C854   1.290       .  A
O843        C852   1.279       .  A
O844        C854   1.267       .  A
O845        C853   1.298       .  A
O846        C855   1.261       .  A
O848        C855   1.296       .  A
O849        C856   1.280       .  A
O850        C857   1.277       .  A
O851        C857   1.279       .  A
Zn858       O863   2.045       .  S
Zn858       O867   2.050       .  S
Zn858       O874   2.100       .  S
Zn859       O862   1.966       .  S
Zn859       O864   2.124       .  S
Zn859       O866   2.155       .  S
Zn859       O870   2.125       .  S
Zn860       O862   1.992       .  S
Zn860       O868   2.041       .  S
Zn860       O871   2.029       .  S
Zn861       O862   1.992       .  S
Zn861       O869   2.157       .  S
Zn861       O872   1.996       .  S
Zn861       O873   2.078       .  S
O863        C875   1.273       .  A
O864        C876   1.292       .  A
O865        C877   1.271       .  A
O867        C877   1.287       .  A
O868        C876   1.269       .  A
O869        C878   1.284       .  A
O870        C879   1.290       .  A
O871        C878   1.278       .  A
O872        C879   1.270       .  A
O874        C880   1.281       .  A
C881       C1198   1.383       .  A
C881       H1200   1.079       .  S
C882        C883   1.400       .  A
C883        N890   1.425       .  S
C884       C1197   1.403       .  A
C884        H889   1.083       .  S
C885       C1196   1.403   1_545  A
C885        C886   1.431       .  A
C886       C1193   1.383       .  A
C886        N887   1.447       .  S
N887        O891   1.262       .  A
N887        O892   1.258       .  A
H888       C1193   1.079       .  S
N890        O893   1.260       .  A
N890        O894   1.257       .  A
C895        C896   1.404       .  A
C895        H902   1.083       .  S
C897        N904   1.420   1_556  S
C898        C899   1.407       .  A
C898        H903   1.081       .  S
C900        N901   1.434       .  S
N901        O905   1.261       .  A
N904        O907   1.261       .  A
C909        C910   1.392       .  A
C909        H916   1.081       .  S
C910       C1223   1.422   1_545  A
C911       C1222   1.422       .  A
C911        C912   1.377       .  A
C911        N918   1.425       .  S
C912        H917   1.080       .  S
C913       C1226   1.426       .  A
C914       C1225   1.426   1_545  A
C914        N915   1.449       .  S
N915        O919   1.253       .  A
N915        O920   1.259       .  A
N918        O921   1.254       .  A
N918        O922   1.262       .  A
C923        C924   1.358       .  A
C923        C928   1.344       .  A
C923        H930   1.076       .  S
C924        C925   1.418       .  A
C925        C926   1.396       .  A
C925        N932   1.418       .  S
C926        C927   1.417       .  A
C926        H931   1.083       .  S
C927        C928   1.408       .  A
C928        N929   1.394       .  S
N929        O933   1.262       .  A
N929        O934   1.263       .  A
N932        O935   1.256       .  A
N932        O936   1.259       .  A
C937        C990   1.554       .  S
C937       C1008   1.559       .  S
C937       C1035   1.545       .  S
C937       C1083   1.543       .  S
C938        C962   1.553       .  S
C938        C989   1.530       .  S
C938       C1034   1.595       .  S
C938       C1066   1.538       .  S
C939        C967   1.556       .  S
C939       C1010   1.551       .  S
C939       C1036   1.571       .  S
C939       C1052   1.526       .  S
C940        C986   1.530       .  S
C940       C1011   1.577       .  S
C940       C1033   1.580       .  S
C940       C1080   1.528       .  S
C941        C964   1.539       .  S
C941        C985   1.549       .  S
C941       C1009   1.589       .  S
C941       C1038   1.518       .  S
C942        C963   1.571       .  S
C942       C1012   1.566       .  S
C942       C1032   1.561       .  S
C942       C1055   1.549       .  S
C943        C966   1.569       .  S
C943        C988   1.553       .  S
C943       C1013   1.549       .  S
C943       C1041   1.553       .  S
C944        C965   1.559       .  S
C944        C987   1.564       .  S
C944       C1031   1.563       .  S
C944       C1069   1.531       .  S
Zn945       O949   1.955       .  S
Zn945       O950   2.119       .  S
Zn945       O954   2.112       .  S
Zn945       O961   2.132       .  S
Zn946       O951   2.037       .  S
Zn946       O953   1.944       .  S
Zn947      O1105   1.961   1_554  S
Zn947       O952   1.949       .  S
Zn947       O958   1.994       .  S
Zn948      O1112   2.115       .  S
Zn948       O959   2.012   1_565  S
Zn948       O960   2.073       .  S
O949      Zn1103   1.961       .  S
O951       C1119   1.281       .  A
O952        C964   1.263       .  A
O953        C962   1.261       .  A
O954       C1120   1.289       .  A
O955        C963   1.284       .  A
O956      Zn1104   2.115   1_554  S
O956        C965   1.272       .  A
O957        C966   1.278       .  A
O960        C967   1.279       .  A
C963       O1107   1.281   1_554  A
C964       O1110   1.289   1_554  A
Zn968       O972   1.892       .  S
Zn968       O973   1.945       .  S
Zn968       O977   2.185       .  S
Zn968       O984   2.115       .  S
Zn969       O974   2.093       .  S
Zn969       O980   2.133       .  S
Zn970       O978   1.986       .  S
Zn970       O981   2.102       .  S
Zn971       O972   1.946       .  S
Zn971       O979   1.942   1_565  S
Zn971       O983   2.136       .  S
O973        C985   1.246       .  A
O974        C986   1.293       .  A
O975        C987   1.278       .  A
O976        C985   1.292       .  A
O977        C987   1.264       .  A
O978        C986   1.270       .  A
O980        C989   1.296       .  A
O981        C988   1.267       .  A
O982        C989   1.272       .  A
O983        C990   1.280       .  A
O984        C990   1.270       .  A
Zn991       O995   2.001       .  S
Zn991       O996   1.997       .  S
Zn991      O1000   1.986       .  S
Zn991      O1007   2.111       .  S
Zn992       O995   1.995       .  S
Zn992      O1153   2.021       .  S
Zn992       O999   2.099       .  S
Zn992      O1003   2.040       .  S
Zn993      O1151   1.958   1_554  S
Zn993      O1154   2.130   1_554  S
Zn993      O1001   2.191       .  S
Zn993      O1004   2.175       .  S
Zn994      O1151   1.986   1_554  S
Zn994      O1002   1.972       .  S
Zn994      O1005   2.107       .  S
Zn994      O1162   1.995   1_554  S
O995      Zn1149   1.958       .  S
O995      Zn1150   1.986       .  S
O996       C1008   1.277       .  A
O997      Zn1148   2.021   1_554  S
O997       C1009   1.272       .  A
O998      Zn1149   2.130       .  S
O998       C1010   1.290       .  A
O999       C1008   1.279       .  A
O1000      C1010   1.267       .  A
O1001      C1009   1.298       .  A
O1002      C1011   1.261       .  A
O1003      C1168   1.282       .  A
O1004      C1011   1.296       .  A
O1005      C1012   1.280       .  A
O1006     Zn1150   1.995       .  S
O1006      C1013   1.277       .  A
O1007      C1013   1.279       .  A
C1012      O1159   1.282   1_554  A
Zn1014     O1019   2.045       .  S
Zn1014     O1023   2.050       .  S
Zn1014     O1030   2.100       .  S
Zn1015     O1018   1.966       .  S
Zn1015     O1020   2.124       .  S
Zn1015     O1022   2.155       .  S
Zn1015     O1026   2.125       .  S
Zn1016     O1018   1.992       .  S
Zn1016     O1024   2.041       .  S
Zn1016     O1027   2.029       .  S
Zn1017     O1018   1.992       .  S
Zn1017     O1025   2.157       .  S
Zn1017     O1028   1.996       .  S
Zn1017     O1029   2.078       .  S
O1019      C1031   1.273       .  A
O1020      C1032   1.292       .  A
O1021      C1033   1.271       .  A
O1023      C1033   1.287       .  A
O1024      C1032   1.269       .  A
O1025      C1034   1.284       .  A
O1026      C1035   1.290       .  A
O1027      C1034   1.278       .  A
O1028      C1035   1.270       .  A
O1030      C1036   1.281       .  A
C1037      C1194   1.415   1_545  A
C1038      C1193   1.415   1_564  A
C1038      C1039   1.400   1_554  A
C1039      C1196   1.368       .  A
C1039      N1046   1.425   1_556  S
C1040      C1195   1.368       .  A
C1040      H1045   1.083       .  S
C1041      C1042   1.431       .  A
C1042      N1043   1.447       .  S
N1043      O1047   1.262       .  A
N1043      O1048   1.258       .  A
N1046      O1049   1.260       .  A
N1046      O1050   1.257       .  A
C1051      C1052   1.404       .  A
C1051      H1058   1.083       .  S
C1053      C1210   1.375       .  A
C1053      N1060   1.420       .  S
C1054      C1209   1.375   1_554  A
C1054      C1055   1.407       .  A
C1054      H1059   1.081       .  S
C1055      C1212   1.419   1_655  A
C1056      C1211   1.419   1_455  A
C1056      N1057   1.434       .  S
N1057      O1061   1.261       .  A
N1057      O1218   1.256       .  A
N1060      O1063   1.261       .  A
N1060      O1220   1.259   1_655  A
O1062      N1213   1.256       .  A
O1064      N1216   1.259   1_455  A
C1065      C1066   1.392       .  A
C1065      H1072   1.081       .  S
C1067      C1068   1.377       .  A
C1067      N1074   1.425       .  S
C1068      H1073   1.080       .  S
C1070      N1071   1.449       .  S
N1071      O1075   1.253       .  A
N1071      O1076   1.259       .  A
N1074      O1077   1.254       .  A
N1074      O1078   1.262       .  A
C1079      C1080   1.358       .  A
C1079      C1084   1.344       .  A
C1079      H1086   1.076       .  S
C1080      C1081   1.418       .  A
C1081      C1082   1.396       .  A
C1081      N1088   1.418       .  S
C1082      C1083   1.417       .  A
C1082      H1087   1.083       .  S
C1083      C1084   1.408       .  A
C1084      N1085   1.394       .  S
N1085      O1089   1.262       .  A
N1085      O1090   1.263       .  A
N1088      O1091   1.256       .  A
N1088      O1092   1.259       .  A
C1093      C1146   1.554       .  S
C1093      C1164   1.559       .  S
C1093      C1191   1.545       .  S
C1093      C1239   1.543       .  S
C1094      C1118   1.553       .  S
C1094      C1145   1.530       .  S
C1094      C1190   1.595       .  S
C1094      C1222   1.538       .  S
C1095      C1123   1.556       .  S
C1095      C1166   1.551       .  S
C1095      C1192   1.571       .  S
C1095      C1208   1.526       .  S
C1096      C1142   1.530       .  S
C1096      C1167   1.577       .  S
C1096      C1189   1.580       .  S
C1096      C1236   1.528       .  S
C1097      C1120   1.539       .  S
C1097      C1141   1.549       .  S
C1097      C1165   1.589       .  S
C1097      C1194   1.518       .  S
C1098      C1119   1.571       .  S
C1098      C1168   1.566       .  S
C1098      C1188   1.561       .  S
C1098      C1211   1.549       .  S
C1099      C1122   1.569       .  S
C1099      C1144   1.553       .  S
C1099      C1169   1.549       .  S
C1099      C1197   1.553       .  S
C1100      C1121   1.559       .  S
C1100      C1143   1.564       .  S
C1100      C1187   1.563       .  S
C1100      C1225   1.531       .  S
Zn1101     O1105   1.955       .  S
Zn1101     O1106   2.119       .  S
Zn1101     O1110   2.112       .  S
Zn1101     O1117   2.132       .  S
Zn1102     O1107   2.037       .  S
Zn1102     O1109   1.944       .  S
Zn1103     O1108   1.949       .  S
Zn1103     O1114   1.994       .  S
Zn1104     O1115   2.012   1_565  S
Zn1104     O1116   2.073       .  S
O1108      C1120   1.263       .  A
O1109      C1118   1.261       .  A
O1111      C1119   1.284       .  A
O1112      C1121   1.272       .  A
O1113      C1122   1.278       .  A
O1116      C1123   1.279       .  A
Zn1124     O1128   1.892       .  S
Zn1124     O1129   1.945       .  S
Zn1124     O1133   2.185       .  S
Zn1124     O1140   2.115       .  S
Zn1125     O1130   2.093       .  S
Zn1125     O1136   2.133       .  S
Zn1126     O1134   1.986       .  S
Zn1126     O1137   2.102       .  S
Zn1127     O1128   1.946       .  S
Zn1127     O1135   1.942   1_565  S
Zn1127     O1139   2.136       .  S
O1129      C1141   1.246       .  A
O1130      C1142   1.293       .  A
O1131      C1143   1.278       .  A
O1132      C1141   1.292       .  A
O1133      C1143   1.264       .  A
O1134      C1142   1.270       .  A
O1136      C1145   1.296       .  A
O1137      C1144   1.267       .  A
O1138      C1145   1.272       .  A
O1139      C1146   1.280       .  A
O1140      C1146   1.270       .  A
Zn1147     O1151   2.001       .  S
Zn1147     O1152   1.997       .  S
Zn1147     O1156   1.986       .  S
Zn1147     O1163   2.111       .  S
Zn1148     O1151   1.995       .  S
Zn1148     O1155   2.099       .  S
Zn1148     O1159   2.040       .  S
Zn1149     O1157   2.191       .  S
Zn1149     O1160   2.175       .  S
Zn1150     O1158   1.972       .  S
Zn1150     O1161   2.107       .  S
O1152      C1164   1.277       .  A
O1153      C1165   1.272       .  A
O1154      C1166   1.290       .  A
O1155      C1164   1.279       .  A
O1156      C1166   1.267       .  A
O1157      C1165   1.298       .  A
O1158      C1167   1.261       .  A
O1160      C1167   1.296       .  A
O1161      C1168   1.280       .  A
O1162      C1169   1.277       .  A
O1163      C1169   1.279       .  A
Zn1170     O1175   2.045       .  S
Zn1170     O1179   2.050       .  S
Zn1170     O1186   2.100       .  S
Zn1171     O1174   1.966       .  S
Zn1171     O1176   2.124       .  S
Zn1171     O1178   2.155       .  S
Zn1171     O1182   2.125       .  S
Zn1172     O1174   1.992       .  S
Zn1172     O1180   2.041       .  S
Zn1172     O1183   2.029       .  S
Zn1173     O1174   1.992       .  S
Zn1173     O1181   2.157       .  S
Zn1173     O1184   1.996       .  S
Zn1173     O1185   2.078       .  S
O1175      C1187   1.273       .  A
O1176      C1188   1.292       .  A
O1177      C1189   1.271       .  A
O1179      C1189   1.287       .  A
O1180      C1188   1.269       .  A
O1181      C1190   1.284       .  A
O1182      C1191   1.290       .  A
O1183      C1190   1.278       .  A
O1184      C1191   1.270       .  A
O1186      C1192   1.281       .  A
C1194      C1195   1.400       .  A
C1195      N1202   1.425       .  S
C1196      H1201   1.083       .  S
C1197      C1198   1.431       .  A
C1198      N1199   1.447       .  S
N1199      O1203   1.262       .  A
N1199      O1204   1.258       .  A
N1202      O1205   1.260       .  A
N1202      O1206   1.257       .  A
C1207      C1208   1.404       .  A
C1207      H1214   1.083       .  S
C1209      N1216   1.420   1_556  S
C1210      C1211   1.407       .  A
C1210      H1215   1.081       .  S
C1212      N1213   1.434       .  S
N1213      O1217   1.261       .  A
N1216      O1219   1.261       .  A
C1221      C1222   1.392       .  A
C1221      H1228   1.081       .  S
C1223      C1224   1.377       .  A
C1223      N1230   1.425       .  S
C1224      H1229   1.080       .  S
C1226      N1227   1.449       .  S
N1227      O1231   1.253       .  A
N1227      O1232   1.259       .  A
N1230      O1233   1.254       .  A
N1230      O1234   1.262       .  A
C1235      C1236   1.358       .  A
C1235      C1240   1.344       .  A
C1235      H1242   1.076       .  S
C1236      C1237   1.418       .  A
C1237      C1238   1.396       .  A
C1237      N1244   1.418       .  S
C1238      C1239   1.417       .  A
C1238      H1243   1.083       .  S
C1239      C1240   1.408       .  A
C1240      N1241   1.394       .  S
N1241      O1245   1.262       .  A
N1241      O1246   1.263       .  A
N1244      O1247   1.256       .  A
N1244      O1248   1.259       .  A
