geometry optimzed in LAMMPS
_audit_creation_date              2020-11-30 
_audit_creation_method            'lammps2cif' 
_symmetry_space_group_name_H-M    'P1' 
_symmetry_Int_Tables_number       1 
_symmetry_cell_setting            triclinic 
loop_ 
_symmetry_equiv_pos_as_xyz 
  x,y,z 
_cell_length_a                    37.91831175 
_cell_length_b                    38.3175246533453 
_cell_length_c                    98.57067372172328 
_cell_angle_alpha                 90.01541133537371 
_cell_angle_beta                  90.22810240609188 
_cell_angle_gamma                 119.91493178580494 
loop_ 
_atom_site_label 
_atom_site_type_symbol 
_atom_site_fract_x 
_atom_site_fract_y 
_atom_site_fract_z 
_atom_site_charge 
In1        In  0.74399486  0.73370455  0.87433725     1.36900
C2          C  0.74397079  0.80270557  0.87226677     0.77500
O3          O  0.69928028  0.68866981  0.85915982    -0.60900
O4          O  0.75672262  0.73402748  0.85226300    -0.51900
C5          C  0.81096988  0.73111672  0.87913972     0.70200
O6          O  0.81021771  0.76281147  0.87644331    -0.46700
C7          C  0.70946202  0.71514873  0.89870255     0.74900
O8          O  0.77597181  0.80061729  0.87315817    -0.58600
O9          O  0.69188418  0.69299995  0.88850929    -0.48700
O10         O  0.71171793  0.76900846  0.87183559    -0.55000
C11         C  0.72247459  0.70489438  0.84912107     0.85100
O12         O  0.77653867  0.69926412  0.87898753    -0.56900
O13         O  0.74479950  0.74343406  0.89637667    -0.60200
In14       In  0.64834169  0.68231569  0.76770194     1.36900
C15         C  0.64726499  0.75138829  0.76932422     0.77500
O16         O  0.63605190  0.67572197  0.79009212    -0.60900
O17         O  0.69020251  0.67847024  0.78317005    -0.51900
C18         C  0.58453219  0.60954401  0.76322651     0.70200
O19         O  0.58302045  0.64163079  0.76236393    -0.46700
C20         C  0.69277342  0.69810178  0.74521584     0.74900
O21         O  0.61532721  0.71764229  0.76815262    -0.58600
O22         O  0.70736275  0.70050552  0.75692756    -0.48700
O23         O  0.67936747  0.74936776  0.76974848    -0.55000
C24         C  0.66866163  0.67643341  0.79320502     0.85100
O25         O  0.61934641  0.61488768  0.76617554    -0.56900
O26         O  0.65505736  0.68527722  0.74503134    -0.60200
In27       In  0.65449347  0.97585268  0.77373009     1.36900
C28         C  0.65346377  0.90572202  0.77301704     0.77500
O29         O  0.65987896  0.98557103  0.75124052    -0.60900
O30         O  0.71413935  0.01375889  0.76286376    -0.51900
C31         C  0.58790943  0.98170574  0.77008986     0.70200
O32         O  0.58829054  0.94901483  0.76942587    -0.46700
C33         C  0.67389899  0.99878277  0.79962166     0.74900
O34         O  0.62163848  0.90834266  0.77237441    -0.58600
O35         O  0.69167014  0.02225817  0.78982540    -0.48700
O36         O  0.68567285  0.93914092  0.77427871    -0.55000
C37         C  0.69811992  0.00603174  0.75120480     0.85100
O38         O  0.62228308  0.01206328  0.77261174    -0.56900
O39         O  0.64587533  0.96448430  0.79603332    -0.60200
In40       In  0.74581507  0.02235399  0.88159328     1.36900
C41         C  0.74777212  0.95486491  0.87751242     0.77500
O42         O  0.73301653  0.99657514  0.90245944    -0.60900
O43         O  0.69749829  0.02151675  0.89565307    -0.51900
C44         C  0.81441008  0.09240965  0.88566113     0.70200
O45         O  0.81284310  0.05897254  0.88448460    -0.46700
C46         C  0.72043029  0.02503463  0.85644181     0.74900
O47         O  0.77854190  0.98738436  0.88114941    -0.58600
O48         O  0.69695970  0.01367842  0.86654337    -0.48700
O49         O  0.71606146  0.95724710  0.87586785    -0.55000
C50         C  0.70372684  0.00221155  0.90486744     0.85100
O51         O  0.77994309  0.09009684  0.88513346    -0.56900
O52         O  0.75722413  0.03803596  0.85941906    -0.60200
In53       In  0.07709845  0.68170447  0.77305819     1.36900
C54         C  0.14783435  0.74609277  0.77892162     0.77500
O55         O  0.09214711  0.70485189  0.75184767    -0.60900
O56         O  0.03710086  0.69645040  0.76006414    -0.51900
C57         C  0.06844857  0.60990197  0.76757919     0.70200
O58         O  0.10197978  0.64219098  0.76761001    -0.46700
C59         C  0.04459774  0.67428266  0.79740186     0.74900
O60         O  0.14433653  0.71227216  0.77639119    -0.58600
O61         O  0.02912179  0.67994585  0.78685404    -0.48700
O62         O  0.11469412  0.74629869  0.77893398    -0.55000
C63         C  0.06156530  0.70906285  0.75023711     0.85100
O64         O  0.03817857  0.61434295  0.76989909    -0.56900
O65         O  0.07491664  0.66995336  0.79520913    -0.60200
In66       In  0.04020596  0.75316850  0.87500337     1.36900
C67         C  0.10366044  0.82646610  0.87091606     0.77500
O68         O  0.03645012  0.74277385  0.89735449    -0.60900
O69         O  0.07814503  0.73262938  0.88623253    -0.51900
C70         C  0.96689273  0.74154867  0.87967260     0.70200
O71         O  0.99750376  0.77610403  0.87792469    -0.46700
C72         C  0.02620065  0.71364829  0.85180888     0.74900
O73         O  0.07175045  0.82071290  0.87678430    -0.58600
O74         O  0.03397464  0.70141866  0.86268248    -0.48700
O75         O  0.10226367  0.79468286  0.86685319    -0.55000
C76         C  0.06347290  0.73294902  0.89761843     0.85100
O77         O  0.97415890  0.71280280  0.87907530    -0.56900
O78         O  0.02355113  0.74501366  0.85303727    -0.60200
In79       In  0.07348719  0.39391053  0.77268327     1.36900
C80         C  0.14225505  0.39175101  0.77424179     0.77500
O81         O  0.07326330  0.40603351  0.79486443    -0.60900
O82         O  0.03345553  0.34670204  0.78784487    -0.51900
C83         C  0.06669125  0.45870249  0.76896062     0.70200
O84         O  0.10045631  0.45970642  0.76924663    -0.46700
C85         C  0.04723049  0.35972338  0.74845053     0.74900
O86         O  0.14133689  0.42423451  0.77401420    -0.58600
O87         O  0.02450071  0.34789759  0.75877412    -0.48700
O88         O  0.10765447  0.36046139  0.77417930    -0.55000
C89         C  0.04731098  0.37037194  0.79788681     0.85100
O90         O  0.03616341  0.42411741  0.77058239    -0.56900
O91         O  0.08235699  0.38872619  0.75073108    -0.60200
In92       In  0.04190005  0.30602969  0.87966592     1.36900
C93         C  0.11187110  0.30679658  0.87702964     0.77500
O94         O  0.03119051  0.29063985  0.85762043    -0.60900
O95         O  0.03631970  0.34583292  0.86384484    -0.51900
C96         C  0.96907092  0.24203758  0.88477971     0.70200
O97         O  0.00045577  0.23994955  0.88215652    -0.46700
C98         C  0.06914329  0.35529248  0.90113005     0.74900
O99         O  0.08117846  0.27794436  0.88255319    -0.58600
O100        O  0.05326105  0.36226160  0.89093577    -0.48700
O101        O  0.10561637  0.33381357  0.87228378    -0.55000
C102        C  0.03159020  0.32242011  0.85408483     0.85100
O103        O  0.97525900  0.27756708  0.88539463    -0.56900
O104        O  0.06755568  0.32172726  0.90071799    -0.60200
In105      In  0.34888997  0.33703960  0.87494697     1.36900
C106        C  0.27469791  0.32880522  0.87576005     0.77500
O107        O  0.37450403  0.35108694  0.89608685    -0.60900
O108        O  0.37801203  0.39904807  0.88462686    -0.51900
C109        C  0.35232463  0.27110957  0.87995189     0.70200
O110        O  0.31984113  0.27263712  0.88001345    -0.46700
C111        C  0.37027429  0.34765862  0.84870877     0.74900
O112        O  0.28405324  0.30619251  0.88219216    -0.58600
O113        O  0.39228532  0.37238433  0.85780015    -0.48700
O114        O  0.30363841  0.35586984  0.86908177    -0.55000
C115        C  0.38316793  0.38728747  0.89602006     0.85100
O116        O  0.38401115  0.30421793  0.87729311    -0.56900
O117        O  0.33870867  0.31770589  0.85321618    -0.60200
In118      In  0.36329617  0.39096019  0.76566540     1.36900
C119        C  0.29471301  0.39249814  0.76957306     0.77500
O120        O  0.35682207  0.38409467  0.74299681    -0.60900
O121        O  0.34128376  0.33169086  0.75419845    -0.51900
C122        C  0.43407605  0.45692446  0.76091262     0.70200
O123        O  0.40045484  0.45614674  0.76098266    -0.46700
C124        C  0.37846354  0.37733786  0.79111149     0.74900
O125        O  0.32691305  0.42242121  0.76539399    -0.58600
O126        O  0.37279540  0.35312405  0.78150162    -0.48700
O127        O  0.29767456  0.36165013  0.77168717    -0.55000
C128        C  0.34244493  0.34659822  0.74266375     0.85100
O129        O  0.43136700  0.42295135  0.76275124    -0.56900
O130        O  0.37723113  0.40823440  0.78753483    -0.60200
In131      In  0.32660411  0.04210145  0.87510018     1.36900
C132        C  0.25559385  0.97676828  0.87002832     0.77500
O133        O  0.33255416  0.05963230  0.85331163    -0.60900
O134        O  0.37011889  0.03746560  0.86072172    -0.51900
C135        C  0.33786209  0.11457846  0.88060105     0.70200
O136        O  0.30366050  0.08446453  0.87796764    -0.46700
C137        C  0.34082093  0.01855783  0.89887259     0.74900
O138        O  0.25885543  0.01042494  0.87278021    -0.58600
O139        O  0.36744423  0.03240094  0.88964893    -0.48700
O140        O  0.28896443  0.97705488  0.86948378    -0.55000
C141        C  0.35850137  0.04936614  0.85057746     0.85100
O142        O  0.36706991  0.10756427  0.88051032    -0.56900
O143        O  0.30877464  0.01911625  0.89601665    -0.60200
In144      In  0.35985896  0.96985829  0.77250207     1.36900
C145        C  0.29566847  0.89893209  0.77853162     0.77500
O146        O  0.36862288  0.97219385  0.79486649    -0.60900
O147        O  0.37346881  0.02404586  0.78530817    -0.51900
C148        C  0.43258639  0.97702044  0.76787761     0.70200
O149        O  0.39974249  0.94400046  0.76821076    -0.46700
C150        C  0.32955783  0.98487247  0.75000626     0.74900
O151        O  0.32911681  0.90277168  0.77475084    -0.58600
O152        O  0.33239333  0.00212216  0.76116396    -0.48700
O153        O  0.29557555  0.93166624  0.77946394    -0.55000
C154        C  0.37444151  0.00735907  0.79624709     0.85100
O155        O  0.42812912  0.00738904  0.76924889    -0.56900
O156        O  0.34498940  0.96241909  0.75022005    -0.60200
In157      In  0.69475232  0.08243237  0.21329295     1.36900
C158        C  0.76148261  0.15065354  0.20700410     0.77500
O159        O  0.71713379  0.10033853  0.23450596    -0.60900
O160        O  0.69796170  0.04036139  0.22865862    -0.51900
C161        C  0.62245672  0.07660561  0.21662484     0.70200
O162        O  0.65545112  0.10952280  0.21618693    -0.46700
C163        C  0.69172066  0.04759387  0.18962594     0.74900
O164        O  0.72714869  0.14806400  0.20820254    -0.58600
O165        O  0.70333487  0.03858327  0.20042173    -0.48700
O166        O  0.76135368  0.11819148  0.20914607    -0.55000
C167        C  0.71349549  0.06696140  0.23780435     0.85100
O168        O  0.62657890  0.04591147  0.21579334    -0.56900
O169        O  0.67902255  0.07203439  0.19127579    -0.60200
In170      In  0.75356028  0.02695061  0.10953422     1.36900
C171        C  0.82494315  0.09536606  0.11003174     0.77500
O172        O  0.75451011  0.02931140  0.08694807    -0.60900
O173        O  0.71657457  0.04673294  0.09717224    -0.51900
C174        C  0.73985887  0.95290502  0.10501024     0.70200
O175        O  0.77501577  0.98300862  0.10645678    -0.46700
C176        C  0.72483391  0.02199727  0.13456721     0.74900
O177        O  0.82210445  0.06111591  0.10985726    -0.58600
O178        O  0.70599112  0.02269622  0.12407722    -0.48700
O179        O  0.79117505  0.09417861  0.11063436    -0.55000
C180        C  0.73078781  0.04328333  0.08599553     0.85100
O181        O  0.71127998  0.96056522  0.10628938    -0.56900
O182        O  0.75780201  0.02269692  0.13213147    -0.60200
In183      In  0.31052510  0.02627103  0.10211807     1.36900
C184        C  0.31489648  0.09758827  0.10338647     0.77500
O185        O  0.29807555  0.02269444  0.12439566    -0.60900
O186        O  0.34859002  0.01752432  0.11803786    -0.51900
C187        C  0.24302941  0.95605425  0.09852760     0.70200
O188        O  0.24397980  0.98931252  0.09929553    -0.46700
C189        C  0.35547693  0.04339987  0.07972631     0.74900
O190        O  0.28241438  0.06571158  0.10041021    -0.58600
O191        O  0.36863060  0.04186533  0.09136914    -0.48700
O192        O  0.34450739  0.09237849  0.10588103    -0.55000
C193        C  0.32802909  0.01899529  0.12786126     0.85100
O194        O  0.27763791  0.95876165  0.09920176    -0.56900
O195        O  0.31814353  0.03237617  0.07935937    -0.60200
In196      In  0.39896453  0.07244186  0.20932677     1.36900
C197        C  0.40171372  0.14316416  0.20791108     0.77500
O198        O  0.40934616  0.07783594  0.18698331    -0.60900
O199        O  0.35674994  0.02595389  0.19410448    -0.51900
C200        C  0.46582748  0.06843566  0.21409995     0.70200
O201        O  0.46330406  0.09962304  0.21601233    -0.46700
C202        C  0.35517698  0.04095394  0.23166932     0.74900
O203        O  0.43271141  0.13948798  0.20669474    -0.58600
O204        O  0.33997684  0.03110575  0.21992851    -0.48700
O205        O  0.36930406  0.11041719  0.20977355    -0.55000
C206        C  0.37754993  0.04550813  0.18400053     0.85100
O207        O  0.43317080  0.03830476  0.21001226    -0.56900
O208        O  0.39282391  0.06557165  0.23184316    -0.60200
In209      In  0.98831732  0.65818963  0.21106722     1.36900
C210        C  0.91879523  0.65651869  0.20625408     0.77500
O211        O  0.97513711  0.66046420  0.23280053    -0.60900
O212        O  0.03016218  0.70871394  0.22533576    -0.51900
C213        C  0.99720033  0.59497294  0.21507617     0.70200
O214        O  0.96343834  0.59372858  0.21586088    -0.46700
C215        C  0.01773928  0.68042032  0.18621903     0.74900
O216        O  0.92121466  0.62499419  0.20739380    -0.58600
O217        O  0.98908058  0.64586737  0.18913006    -0.48700
O218        O  0.95232562  0.68878937  0.20739457    -0.55000
C219        C  0.00642970  0.69371424  0.23532614     0.85100
O220        O  0.02725149  0.62952848  0.21287418    -0.56900
O221        O  0.03287423  0.70388605  0.19629165    -0.60200
In222      In  0.02058093  0.73913888  0.10476924     1.36900
C223        C  0.95092268  0.73893889  0.10749500     0.77500
O224        O  0.01526364  0.73103068  0.08226144    -0.60900
O225        O  0.99700484  0.67894337  0.09419559    -0.51900
C226        C  0.09163139  0.80404038  0.09965355     0.70200
O227        O  0.05863149  0.80436664  0.10066122    -0.46700
C228        C  0.03526454  0.72585719  0.13011267     0.74900
O229        O  0.98321267  0.76937341  0.10357563    -0.58600
O230        O  0.03480474  0.70453283  0.12023854    -0.48700
O231        O  0.95469530  0.70880231  0.11014896    -0.55000
C232        C  0.99995451  0.69337317  0.08247122     0.85100
O233        O  0.08802528  0.76955916  0.10086768    -0.56900
O234        O  0.02934432  0.75429272  0.12685629    -0.60200
In235      In  0.41354530  0.36821633  0.21053886     1.36900
C236        C  0.41296933  0.29926435  0.20807565     0.77500
O237        O  0.40531152  0.35629517  0.23279900    -0.60900
O238        O  0.35594056  0.35357444  0.22173902    -0.51900
C239        C  0.47560739  0.44049767  0.21607136     0.70200
O240        O  0.47814962  0.40891011  0.21623857    -0.46700
C241        C  0.39808699  0.37597212  0.18465254     0.74900
O242        O  0.44539624  0.33218010  0.21007588    -0.58600
O243        O  0.37403722  0.37213612  0.19413652    -0.48700
O244        O  0.38142282  0.30222731  0.20713896    -0.55000
C245        C  0.36894544  0.34868637  0.23300020     0.85100
O246        O  0.44049615  0.43480664  0.21343013    -0.56900
O247        O  0.43041145  0.37732412  0.18857290    -0.60200
In248      In  0.33778563  0.32892060  0.10197940     1.36900
C249        C  0.32731707  0.25465505  0.10247318     0.77500
O250        O  0.34867471  0.34842733  0.08009179    -0.60900
O251        O  0.39932697  0.35801723  0.09179945    -0.51900
C252        C  0.27419387  0.33845478  0.09784226     0.70200
O253        O  0.27457529  0.30661429  0.09483326    -0.46700
C254        C  0.35523716  0.35307730  0.12778173     0.74900
O255        O  0.29880415  0.26149160  0.09987007    -0.58600
O256        O  0.37747427  0.37369877  0.11805315    -0.48700
O257        O  0.36089332  0.28590557  0.10477916    -0.55000
C258        C  0.38598434  0.35967115  0.08023418     0.85100
O259        O  0.30744154  0.36640867  0.10255854    -0.56900
O260        O  0.32401675  0.32093224  0.12420383    -0.60200
In261      In  0.97822942  0.37002385  0.20497700     1.36900
C262        C  0.90842848  0.30334555  0.20038629     0.77500
O263        O  0.98473038  0.38440102  0.18280901    -0.60900
O264        O  0.02405771  0.36636419  0.19171460    -0.51900
C265        C  0.98860404  0.44191818  0.21077327     0.70200
O266        O  0.95410083  0.41143288  0.20884103    -0.46700
C267        C  0.99325441  0.34653564  0.22852990     0.74900
O268        O  0.91057065  0.33695111  0.20227409    -0.58600
O269        O  0.02033869  0.36314211  0.21957297    -0.48700
O270        O  0.94241510  0.30488296  0.19992538    -0.55000
C271        C  0.01252348  0.37589013  0.18102069     0.85100
O272        O  0.01813369  0.43574605  0.20956089    -0.56900
O273        O  0.95998083  0.34454257  0.22567583    -0.60200
In274      In  0.04412257  0.31876434  0.10177944     1.36900
C275        C  0.97492132  0.24864545  0.10464831     0.77500
O276        O  0.05451017  0.32073964  0.12420110    -0.60900
O277        O  0.03840094  0.36172873  0.11574371    -0.51900
C278        C  0.11827246  0.32985112  0.09808303     0.70200
O279        O  0.08640349  0.29615369  0.09665112    -0.46700
C280        C  0.03546642  0.34605517  0.07798761     0.74900
O281        O  0.00953335  0.25151499  0.10493935    -0.58600
O282        O  0.03796923  0.36424174  0.08893972    -0.48700
O283        O  0.97598293  0.28163151  0.10268856    -0.55000
C284        C  0.04612876  0.34825644  0.12634127     0.85100
O285        O  0.11214231  0.35803149  0.10161608    -0.56900
O286        O  0.03768245  0.31455239  0.07936737    -0.60200
In287      In  0.72395849  0.72754365  0.10292063     1.36900
C288        C  0.79389045  0.72915725  0.10713267     0.77500
O289        O  0.67792945  0.68459256  0.11821565    -0.60900
O290        O  0.72597297  0.74099845  0.12489013    -0.51900
C291        C  0.71988518  0.79410221  0.09949684     0.70200
O292        O  0.75237810  0.79280784  0.09913247    -0.46700
C293        C  0.70568070  0.69002492  0.07878250     0.74900
O294        O  0.79126412  0.76009268  0.10484274    -0.58600
O295        O  0.68343694  0.67439106  0.08907098    -0.48700
O296        O  0.76010807  0.69693128  0.10755247    -0.55000
C297        C  0.69561090  0.70793862  0.12815030     0.85100
O298        O  0.68806502  0.76011697  0.10083822    -0.56900
O299        O  0.73461015  0.72513728  0.08083234    -0.60200
In300      In  0.69701685  0.65434990  0.21034904     1.36900
C301        C  0.76425162  0.65152047  0.20550089     0.77500
O302        O  0.67712055  0.63759882  0.18871254    -0.60900
O303        O  0.69656695  0.69739405  0.19485004    -0.51900
C304        C  0.62611831  0.59083343  0.21662565     0.70200
O305        O  0.65856225  0.58971923  0.21539351    -0.46700
C306        C  0.72065299  0.69871111  0.23307562     0.74900
O307        O  0.73127178  0.62104106  0.20891168    -0.58600
O308        O  0.70482452  0.70694718  0.22316970    -0.48700
O309        O  0.76218098  0.68319089  0.20414242    -0.55000
C310        C  0.68423925  0.67213777  0.18524566     0.85100
O311        O  0.63009491  0.62531961  0.21503605    -0.56900
O312        O  0.72242463  0.66706915  0.23147975    -0.60200
C313        C  0.75436499  0.59557457  0.01453135     0.86400
C314        C  0.71708961  0.55284361  0.01418893    -0.53800
C315        C  0.68033128  0.55100977  0.01555653     0.09300
C316        C  0.68419571  0.59275539  0.01748577     0.20300
C317        C  0.74510243  0.61897808  0.00345241    -0.54500
C318        C  0.70829061  0.61781174  0.00502710     0.09400
C319        C  0.75030607  0.61464643  0.02775237    -0.54100
C320        C  0.71370626  0.61265509  0.02944735     0.10000
H321        H  0.71981655  0.52608796  0.01308789     0.14500
H322        H  0.65439600  0.59113648  0.01891997     0.00300
H323        H  0.76684800  0.63747095  0.99581915     0.14800
H324        H  0.77491870  0.62966203  0.03506281     0.14600
C325        C  0.60973721  0.74163103  0.96668146     0.86400
C326        C  0.56750475  0.70337868  0.96673112    -0.53800
C327        C  0.56787469  0.66886448  0.96375168     0.09300
C328        C  0.61072416  0.67509531  0.96102596     0.20300
C329        C  0.63576091  0.73228116  0.97654611    -0.54500
C330        C  0.63597926  0.69717576  0.97373365     0.09400
C331        C  0.62551897  0.74026042  0.95246036    -0.54100
C332        C  0.62810521  0.70661097  0.94957276     0.10000
H333        H  0.53916684  0.70325283  0.96837549     0.14500
H334        H  0.61075430  0.64673191  0.95893145     0.00300
H335        H  0.65260186  0.75194393  0.98495114     0.14800
H336        H  0.63373897  0.76405464  0.94508517     0.14600
C337        C  0.34340478  0.47156729  0.96307483     0.86400
C338        C  0.35431857  0.44837369  0.97382683    -0.53800
C339        C  0.39189896  0.45109158  0.97188093     0.09300
C340        C  0.41426270  0.47647908  0.95926749     0.20300
C341        C  0.37998388  0.51461540  0.96368699    -0.54500
C342        C  0.41668077  0.51727287  0.96162363     0.09400
C343        C  0.34744304  0.45404842  0.94954147    -0.54100
C344        C  0.38431962  0.45721441  0.94742402     0.10000
H345        H  0.33469265  0.43157186  0.98217634     0.14500
H346        H  0.44398805  0.47884600  0.95705963     0.00300
H347        H  0.37704773  0.54097825  0.96560034     0.14800
H348        H  0.32316579  0.44084642  0.94203267     0.14600
C349        C  0.48056229  0.32395995  0.01417962     0.86400
C350        C  0.45633335  0.33439718  0.00366994    -0.53800
C351        C  0.45780486  0.37055281  0.00606548     0.09300
C352        C  0.48343072  0.39313938  0.01862828     0.20300
C353        C  0.52384982  0.36156173  0.01372422    -0.54500
C354        C  0.52570871  0.39774678  0.01618575     0.09400
C355        C  0.46338809  0.32722469  0.02789792    -0.54100
C356        C  0.46520655  0.36301749  0.03034738     0.10000
H357        H  0.44127513  0.31707507  0.99474454     0.14500
H358        H  0.48412642  0.42202624  0.02053724     0.00300
H359        H  0.55092145  0.35944496  0.01184251     0.14800
H360        H  0.45084008  0.30284593  0.03523441     0.14600
C361        C  0.93652620  0.54328490  0.01771101     0.86400
C362        C  0.94444496  0.56282489  0.03190870    -0.53800
C363        C  0.95156654  0.60154859  0.03205752     0.09300
C364        C  0.94796097  0.61661574  0.01785952     0.20300
C365        C  0.89953093  0.54610579  0.01256235    -0.54500
C366        C  0.90487909  0.58427176  0.01276645     0.09400
C367        C  0.97183990  0.57287790  0.00901336    -0.54100
C368        C  0.97925597  0.61138541  0.00920389     0.10000
H369        H  0.94531938  0.54752026  0.04106122     0.14500
H370        H  0.95241723  0.64747400  0.01793382     0.00300
H371        H  0.86993138  0.51999481  0.01059449     0.14800
H372        H  0.99108819  0.56412523  0.00354388     0.14600
C373        C  0.12643583  0.71253676  0.94929047     0.86400
C374        C  0.13842135  0.68006463  0.94887155    -0.53800
C375        C  0.15548369  0.67566511  0.96048895     0.09300
C376        C  0.15791613  0.70484076  0.97205541     0.20300
C377        C  0.09808518  0.70134773  0.96153335    -0.54500
C378        C  0.11368045  0.69772311  0.97367634     0.09400
C379        C  0.16455807  0.75114454  0.95397618    -0.54100
C380        C  0.18163335  0.74731437  0.96566758     0.10000
H381        H  0.13213370  0.66088400  0.94003936     0.14500
H382        H  0.17269824  0.70262529  0.98142592     0.00300
H383        H  0.06787584  0.69707584  0.96082738     0.14800
H384        H  0.17748928  0.77932239  0.94842685     0.14600
C385        C  0.91397988  0.31815843  0.01191832     0.86400
C386        C  0.90615452  0.35392701  0.01146872    -0.53800
C387        C  0.93955544  0.39099509  0.01360118     0.09300
C388        C  0.97859110  0.38866778  0.01624099     0.20300
C389        C  0.94869671  0.32979789  0.00146324    -0.54500
C390        C  0.98296729  0.36653373  0.00387314     0.09400
C391        C  0.93496210  0.32230774  0.02561683    -0.54100
C392        C  0.96819999  0.35882658  0.02796056     0.10000
H393        H  0.87570216  0.34937774  0.01036733     0.14500
H394        H  0.00576216  0.41828456  0.01814078     0.00300
H395        H  0.94764923  0.31165555  0.99300224     0.14800
H396        H  0.92472109  0.29775414  0.03284945     0.14600
C397        C  0.16275403  0.52654811  0.96110697     0.86400
C398        C  0.19995284  0.52286819  0.96507466    -0.53800
C399        C  0.19414279  0.48461533  0.96429366     0.09300
C400        C  0.15033457  0.45274274  0.95987252     0.20300
C401        C  0.15083213  0.50700311  0.94684739    -0.54500
C402        C  0.14323949  0.46806898  0.94616871     0.09400
C403        C  0.12773453  0.49598483  0.96999901    -0.54100
C404        C  0.12156114  0.45785350  0.96958629     0.10000
H405        H  0.22943324  0.54892154  0.96731255     0.14500
H406        H  0.14488672  0.42148136  0.95964830     0.00300
H407        H  0.14764861  0.52228605  0.93810474     0.14800
H408        H  0.10780542  0.50307913  0.97577343     0.14600
C409        C  0.75768316  0.16376131  0.01769794     0.86400
C410        C  0.74609939  0.12642470  0.00862219    -0.53800
C411        C  0.71015830  0.09239979  0.01207916     0.09300
C412        C  0.68968997  0.09958457  0.02449733     0.20300
C413        C  0.71997890  0.16886360  0.01697345    -0.54500
C414        C  0.68438415  0.13589027  0.02080085     0.09400
C415        C  0.75780287  0.14851940  0.03206868    -0.54100
C416        C  0.72256340  0.11524635  0.03566869     0.10000
H417        H  0.76452083  0.12633508  0.00032443     0.14500
H418        H  0.66076620  0.07319833  0.02741401     0.00300
H419        H  0.72179476  0.19707754  0.01410984     0.14800
H420        H  0.78421268  0.16229852  0.03874033     0.14600
C421        C  0.54645083  0.91664017  0.96859932     0.86400
C422        C  0.56689146  0.93276112  0.95480681    -0.53800
C423        C  0.60570495  0.93963858  0.95378066     0.09300
C424        C  0.62089959  0.92868416  0.96684058     0.20300
C425        C  0.54955058  0.87812443  0.97036889    -0.54500
C426        C  0.58855189  0.88400235  0.96989072     0.09400
C427        C  0.57648374  0.94606603  0.97912493    -0.54100
C428        C  0.61534848  0.95334501  0.97811273     0.10000
H429        H  0.55139801  0.93801112  0.94644125     0.14500
H430        H  0.65273846  0.93506285  0.96619757     0.00300
H431        H  0.52366380  0.84834281  0.97087463     0.14800
H432        H  0.56793881  0.96163320  0.98648969     0.14600
C433        C  0.52992358  0.13896454  0.02221270     0.86400
C434        C  0.52942198  0.17793845  0.01903213    -0.53800
C435        C  0.49138200  0.17392135  0.01820214     0.09300
C436        C  0.45640466  0.12948252  0.02054627     0.20300
C437        C  0.50460597  0.12388546  0.03538954    -0.54500
C438        C  0.46631203  0.11875376  0.03460002     0.09400
C439        C  0.50311198  0.10933129  0.01132580    -0.54100
C440        C  0.46412608  0.10209028  0.01078337     0.10000
H441        H  0.55709295  0.20681851  0.01803312     0.14500
H442        H  0.42529397  0.12528725  0.01983244     0.00300
H443        H  0.51519938  0.11738337  0.04470519     0.14800
H444        H  0.51338385  0.09237930  0.00528586     0.14600
C445        C  0.36058796  0.95187041  0.95019692     0.86400
C446        C  0.36784640  0.98170999  0.96160149    -0.53800
C447        C  0.37075124  0.96933974  0.97437569     0.09300
C448        C  0.36643387  0.92658469  0.97441125     0.20300
C449        C  0.39549997  0.94256019  0.95167087    -0.54500
C450        C  0.39939909  0.93031865  0.96436887     0.09400
C451        C  0.32307077  0.91215508  0.95451762    -0.54100
C452        C  0.32570928  0.89863420  0.96702811     0.10000
H453        H  0.37386032  0.01187326  0.95934014     0.14500
H454        H  0.36873431  0.91530832  0.98454869     0.00300
H455        H  0.41597857  0.94578831  0.94349752     0.14800
H456        H  0.29766640  0.89369506  0.94783374     0.14600
C457        C  0.03887569  0.77629142  0.69961615     0.86400
C458        C  0.00456115  0.78694883  0.69875437    -0.53800
C459        C  0.99711697  0.79569424  0.68600833     0.09300
C460        C  0.02489462  0.79323476  0.67503030     0.20300
C461        C  0.02617846  0.74213621  0.68935974    -0.54500
C462        C  0.01802422  0.74970048  0.67654428     0.09400
C463        C  0.07547077  0.81253162  0.69320801    -0.54100
C464        C  0.06896516  0.82185696  0.68038876     0.10000
H465        H  0.98598324  0.78636424  0.70702740     0.14500
H466        H  0.01863143  0.80060314  0.66473715     0.00300
H467        H  0.02283199  0.71329735  0.69226160     0.14800
H468        H  0.10410610  0.83031310  0.69857106     0.14600
C469        C  0.86872148  0.57688070  0.62689479     0.86400
C470        C  0.89455652  0.59247045  0.61395476    -0.53800
C471        C  0.93321733  0.59906223  0.61519935     0.09300
C472        C  0.94311943  0.58942452  0.62944985     0.20300
C473        C  0.87086642  0.53876187  0.63036232    -0.54500
C474        C  0.90948177  0.54439953  0.63171385     0.09400
C475        C  0.89398792  0.60762669  0.63777203    -0.54100
C476        C  0.93270463  0.61490511  0.63918201     0.10000
H477        H  0.88383624  0.59685656  0.60427810     0.14500
H478        H  0.97481841  0.59562140  0.63063616     0.00300
H479        H  0.84379997  0.50924393  0.63095797     0.14800
H480        H  0.88240062  0.62369938  0.64367826     0.14600
C481        C  0.91152721  0.39051984  0.63118664     0.86400
C482        C  0.86775970  0.35397069  0.63122381    -0.53800
C483        C  0.86513770  0.31741511  0.62888022     0.09300
C484        C  0.90684554  0.32083045  0.62637627     0.20300
C485        C  0.93523709  0.37896133  0.64142248    -0.54500
C486        C  0.93306512  0.34236287  0.63897266     0.09400
C487        C  0.92729326  0.38693209  0.61715739    -0.54100
C488        C  0.92544302  0.35122013  0.61472533     0.10000
H489        H  0.84081113  0.35663161  0.63248356     0.14500
H490        H  0.90423984  0.29139985  0.62432626     0.00300
H491        H  0.95242914  0.39845584  0.64981691     0.14800
H492        H  0.93871667  0.41022903  0.60947217     0.14600
C493        C  0.04933042  0.24506576  0.68269483     0.86400
C494        C  0.01074164  0.20400338  0.68391653    -0.53800
C495        C  0.97680740  0.20559504  0.68715326     0.09300
C496        C  0.98382570  0.24865805  0.68877700     0.20300
C497        C  0.03764428  0.26772567  0.67206390    -0.54500
C498        C  0.00334873  0.26987825  0.67528456     0.09400
C499        C  0.05238159  0.26712562  0.69597758    -0.54100
C500        C  0.01857654  0.26923562  0.69924692     0.10000
H501        H  0.01008493  0.17572852  0.68204626     0.14500
H502        H  0.95572426  0.24924604  0.69142100     0.00300
H503        H  0.05456288  0.28135251  0.66290252     0.14800
H504        H  0.07984748  0.28111570  0.70216278     0.14600
C505        C  0.20137467  0.23593682  0.67921269     0.86400
C506        C  0.23607552  0.25931500  0.66894760    -0.53800
C507        C  0.27022847  0.25642418  0.67120699     0.09300
C508        C  0.26723926  0.23136408  0.68382052     0.20300
C509        C  0.19461461  0.19274841  0.67900254    -0.54500
C510        C  0.22876307  0.19012513  0.68142361     0.09400
C511        C  0.22239714  0.25366532  0.69293441    -0.54100
C512        C  0.25658434  0.25145021  0.69540692     0.10000
H513        H  0.23645903  0.27970124  0.66138764     0.14500
H514        H  0.29492752  0.22924328  0.68586655     0.00300
H515        H  0.16512170  0.16641793  0.67701892     0.14800
H516        H  0.21214773  0.26879391  0.69987240     0.14600
C517        C  0.48789886  0.39013091  0.63230212     0.86400
C518        C  0.45413813  0.37666341  0.64316131    -0.53800
C519        C  0.42016376  0.34025868  0.64032507     0.09300
C520        C  0.42320848  0.32089181  0.62703664     0.20300
C521        C  0.49589831  0.35470450  0.63122198    -0.54500
C522        C  0.46224683  0.31824457  0.62866871     0.09400
C523        C  0.46602664  0.38919283  0.61908044    -0.54100
C524        C  0.43286256  0.35305029  0.61619396     0.10000
H525        H  0.45549185  0.39438459  0.65189445     0.14500
H526        H  0.39547879  0.29179992  0.62475859     0.00300
H527        H  0.52630688  0.35892301  0.63200405     0.14800
H528        H  0.47586462  0.41521945  0.61253144     0.14600
C529        C  0.63866321  0.11644525  0.63296010     0.86400
C530        C  0.65017371  0.09413454  0.64355899    -0.53800
C531        C  0.68801619  0.09847576  0.64179204     0.09300
C532        C  0.71068084  0.12412569  0.62935443     0.20300
C533        C  0.67431866  0.16046438  0.63329315    -0.54500
C534        C  0.71200422  0.16460363  0.63152913     0.09400
C535        C  0.64433950  0.10138718  0.61910018    -0.54100
C536        C  0.68134854  0.10441268  0.61737048     0.10000
H537        H  0.63028512  0.07687857  0.65183270     0.14500
H538        H  0.74085072  0.12669121  0.62773218     0.00300
H539        H  0.67005986  0.18636183  0.63405592     0.14800
H540        H  0.62153262  0.08951706  0.61112762     0.14600
C541        C  0.78688825  0.97984624  0.68175512     0.86400
C542        C  0.76112901  0.99032403  0.67195377    -0.53800
C543        C  0.76038405  0.02477623  0.67532639     0.09300
C544        C  0.78593927  0.04612087  0.68796170     0.20300
C545        C  0.82896026  0.01843248  0.68153454    -0.54500
C546        C  0.82838030  0.05269400  0.68479803     0.09400
C547        C  0.76982623  0.97989821  0.69591865    -0.54100
C548        C  0.76935830  0.01428855  0.69916060     0.10000
H549        H  0.74731845  0.97504674  0.66261774     0.14500
H550        H  0.78601205  0.07421817  0.69079291     0.00300
H551        H  0.85697142  0.01861668  0.67910279     0.14800
H552        H  0.75926671  0.95473548  0.70289810     0.14600
C553        C  0.25798843  0.00278693  0.69937296     0.86400
C554        C  0.29102485  0.01192159  0.68891485    -0.53800
C555        C  0.28269982  0.01818949  0.67596476     0.09300
C556        C  0.23958086  0.01356979  0.67455503     0.20300
C557        C  0.24962701  0.03815127  0.69789906    -0.54500
C558        C  0.24019790  0.04422566  0.68501805     0.09400
C559        C  0.21980380  0.96660008  0.69362280    -0.54100
C560        C  0.20979192  0.97130806  0.68069325     0.10000
H561        H  0.31968495  0.01397480  0.69178374     0.14500
H562        H  0.23139756  0.01825963  0.66417832     0.00300
H563        H  0.25191903  0.05811992  0.70602994     0.14800
H564        H  0.20212596  0.93896687  0.69932090     0.14600
C565        C  0.45577859  0.16218041  0.62679871     0.86400
C566        C  0.49313126  0.16007372  0.63186345    -0.53800
C567        C  0.48720312  0.12192173  0.63337382     0.09300
C568        C  0.44337832  0.08880869  0.62924236     0.20300
C569        C  0.44556011  0.13880123  0.61341875    -0.54500
C570        C  0.43856819  0.10035918  0.61461429     0.09400
C571        C  0.42144957  0.13572343  0.63643095    -0.54100
C572        C  0.41448884  0.09755894  0.63772987     0.10000
H573        H  0.52310554  0.18651008  0.63247424     0.14500
H574        H  0.43728644  0.05745544  0.63030615     0.00300
H575        H  0.44401408  0.15146855  0.60373808     0.14800
H576        H  0.40391428  0.14650276  0.64192615     0.14600
C577        C  0.80078882  0.83079844  0.68124886     0.86400
C578        C  0.84331157  0.83441144  0.68035781    -0.53800
C579        C  0.84420161  0.79928514  0.68280099     0.09300
C580        C  0.80097603  0.76338008  0.68570273     0.20300
C581        C  0.77483039  0.79660827  0.67105960    -0.54500
C582        C  0.77476517  0.76157658  0.67345683     0.09400
C583        C  0.78441830  0.81189436  0.69518819    -0.54100
C584        C  0.78446478  0.77696908  0.69752531     0.10000
H585        H  0.87023841  0.86268212  0.67784633     0.14500
H586        H  0.79901032  0.73431119  0.68801248     0.00300
H587        H  0.75851743  0.79888803  0.66240806     0.14800
H588        H  0.77213539  0.82434584  0.70245092     0.14600
C589        C  0.64079839  0.54719407  0.63402799     0.86400
C590        C  0.67700180  0.54004592  0.63232370    -0.53800
C591        C  0.71238243  0.57297148  0.62851182     0.09300
C592        C  0.70902756  0.61115405  0.62705407     0.20300
C593        C  0.65658274  0.58214956  0.64450732    -0.54500
C594        C  0.69268802  0.61569246  0.64084970     0.09400
C595        C  0.63863778  0.56703079  0.62074765    -0.54100
C596        C  0.67409025  0.59974113  0.61705136     0.10000
H597        H  0.67461763  0.51088530  0.63393834     0.14500
H598        H  0.73735757  0.63819213  0.62374052     0.00300
H599        H  0.64192642  0.58153102  0.65390267     0.14800
H600        H  0.61126632  0.55548730  0.61455627     0.14600
In601      In  0.63965927  0.68901712  0.54492108     1.36900
C602        C  0.56817390  0.62073620  0.54369329     0.77500
O603        O  0.63230899  0.69294355  0.52257860    -0.60900
O604        O  0.68449058  0.69138634  0.52954659    -0.51900
C605        C  0.65370137  0.76336069  0.54888320     0.70200
O606        O  0.61925582  0.73250442  0.55058471    -0.46700
C607        C  0.66760015  0.67415478  0.56755947     0.74900
O608        O  0.57097959  0.65493780  0.54424273    -0.58600
O609        O  0.67884986  0.66967701  0.55597878    -0.48700
O610        O  0.60196583  0.62195735  0.54376573    -0.55000
C611        C  0.66422887  0.69230224  0.51948599     0.85100
O612        O  0.68119657  0.75605556  0.54514986    -0.56900
O613        O  0.64430733  0.68872630  0.56754188    -0.60200
In614      In  0.68410648  0.64232944  0.43772067     1.36900
C615        C  0.61398193  0.57262898  0.43907591     0.77500
O616        O  0.68161532  0.68529764  0.45284275    -0.60900
O617        O  0.69348858  0.64019819  0.46011846    -0.51900
C618        C  0.75708147  0.65070313  0.43338777     0.70200
O619        O  0.72444526  0.61744962  0.43257245    -0.46700
C620        C  0.67273372  0.67038005  0.41430744     0.74900
O621        O  0.64818026  0.57476582  0.43989030    -0.58600
O622        O  0.67556018  0.68765261  0.42550542    -0.48700
O623        O  0.61603161  0.60633328  0.43791957    -0.55000
C624        C  0.68767738  0.66895660  0.46302158     0.85100
O625        O  0.75234919  0.68012277  0.43644626    -0.56900
O626        O  0.67746539  0.64017709  0.41522170    -0.60200
In627      In  0.34818123  0.39698924  0.54403010     1.36900
C628        C  0.41749479  0.46705850  0.54270619     0.77500
O629        O  0.35422237  0.39817442  0.56647472    -0.60900
O630        O  0.36104172  0.35387586  0.55584320    -0.51900
C631        C  0.27332724  0.38368164  0.54808814     0.70200
O632        O  0.30468105  0.41787092  0.54939124    -0.46700
C633        C  0.34453209  0.37393572  0.51842329     0.74900
O634        O  0.38316249  0.46470818  0.54352049    -0.58600
O635        O  0.34955784  0.35545384  0.52818905    -0.48700
O636        O  0.41585030  0.43343523  0.54234816    -0.55000
C637        C  0.36173273  0.36972891  0.56716020     0.85100
O638        O  0.28033467  0.35590334  0.54473771    -0.56900
O639        O  0.33992878  0.40308000  0.52188348    -0.60200
In640      In  0.38491222  0.35771357  0.43552499     1.36900
C641        C  0.45717230  0.42527912  0.43669955     0.77500
O642        O  0.37637968  0.35484039  0.41298312    -0.60900
O643        O  0.34793345  0.38052943  0.42437646    -0.51900
C644        C  0.37509472  0.28439428  0.43254895     0.70200
O645        O  0.40827732  0.31655074  0.43061564    -0.46700
C646        C  0.36244304  0.35372471  0.46127235     0.74900
O647        O  0.45368558  0.39115923  0.43476522    -0.58600
O648        O  0.34024568  0.35313911  0.45155931    -0.48700
O649        O  0.42369915  0.42435273  0.43788597    -0.55000
C650        C  0.35613591  0.37270725  0.41276299     0.85100
O651        O  0.34577547  0.28972508  0.43565619    -0.56900
O652        O  0.39483745  0.35496921  0.45763126    -0.60200
In653      In  0.07017740  0.68023567  0.54351287     1.36900
C654        C  0.06814196  0.61026271  0.54220762     0.77500
O655        O  0.06801200  0.67940628  0.56628747    -0.60900
O656        O  0.01263331  0.65863806  0.55542986    -0.51900
C657        C  0.13533360  0.75200415  0.54661637     0.70200
O658        O  0.13688852  0.71989379  0.54588219    -0.46700
C659        C  0.05125971  0.68905808  0.51813206     0.74900
O660        O  0.10066992  0.64306306  0.54426096    -0.58600
O661        O  0.03252319  0.69209046  0.52825509    -0.48700
O662        O  0.03707577  0.61375771  0.54056829    -0.55000
C663        C  0.02985316  0.66305620  0.56680767     0.85100
O664        O  0.09983197  0.74712587  0.54614779    -0.56900
O665        O  0.07921216  0.68174174  0.52115950    -0.60200
In666      In  0.97663421  0.64748231  0.43700938     1.36900
C667        C  0.97433547  0.57668448  0.43832776     0.77500
O668        O  0.98386355  0.65135981  0.41436907    -0.60900
O669        O  0.03444290  0.69142876  0.42636883    -0.51900
C670        C  0.91170454  0.65554730  0.43304307     0.70200
O671        O  0.91140121  0.62274547  0.43148945    -0.46700
C672        C  0.99967549  0.67350284  0.46235293     0.74900
O673        O  0.94268321  0.57953274  0.43784911    -0.58600
O674        O  0.02235791  0.68972301  0.45226462    -0.48700
O675        O  0.00673190  0.61006919  0.43827659    -0.55000
C676        C  0.02072388  0.67847852  0.41465658     0.85100
O677        O  0.94603812  0.68492782  0.43626034    -0.56900
O678        O  0.96461452  0.64521468  0.45939187    -0.60200
In679      In  0.05245745  0.38260708  0.54309226     1.36900
C680        C  0.05589488  0.45356614  0.54241702     0.77500
O681        O  0.01127370  0.33766401  0.52730383    -0.60900
O682        O  0.06371035  0.39106168  0.52085870    -0.51900
C683        C  0.11706323  0.37420470  0.54708477     0.70200
O684        O  0.11758711  0.40717049  0.54840452    -0.46700
C685        C  0.00966455  0.35588299  0.56584670     0.74900
O686        O  0.08714468  0.45000368  0.54302479    -0.58600
O687        O  0.99348645  0.34444076  0.55428211    -0.48700
O688        O  0.02296431  0.42059775  0.54194353    -0.55000
C689        C  0.03215628  0.35896705  0.51745834     0.85100
O690        O  0.08271613  0.34471613  0.54390136    -0.56900
O691        O  0.04768684  0.37820083  0.56561154    -0.60200
In692      In  0.97295156  0.35564481  0.43561883     1.36900
C693        C  0.96910083  0.42287574  0.43783127     0.77500
O694        O  0.96170770  0.35116134  0.45787076    -0.60900
O695        O  0.01109423  0.34492200  0.45071060    -0.51900
C696        C  0.90885209  0.28303380  0.43165290     0.70200
O697        O  0.90820393  0.31538887  0.42998574    -0.46700
C698        C  0.02043469  0.37764730  0.41378353     0.74900
O699        O  0.93814146  0.38929572  0.43520682    -0.58600
O700        O  0.03443130  0.38415360  0.42569361    -0.48700
O701        O  0.00120968  0.42136682  0.43951899    -0.55000
C702        C  0.99129480  0.34620963  0.46079645     0.85100
O703        O  0.94343830  0.28793797  0.43472990    -0.56900
O704        O  0.98224894  0.35662209  0.41305859    -0.60200
In705      In  0.65706108  0.98306039  0.54514348     1.36900
C706        C  0.58443731  0.97734672  0.54331829     0.77500
O707        O  0.66179424  0.98797760  0.56762598    -0.60900
O708        O  0.69526973  0.04182053  0.55658406    -0.51900
C709        C  0.66629009  0.91946454  0.54886181     0.70200
O710        O  0.63412787  0.91997561  0.55159836    -0.46700
C711        C  0.67994047  0.00451798  0.51964277     0.74900
O712        O  0.58882692  0.94691366  0.54404206    -0.58600
O713        O  0.70183609  0.02477340  0.52957458    -0.48700
O714        O  0.61720429  0.01046063  0.54379979    -0.55000
C715        C  0.68378465  0.02567238  0.56808290     0.85100
O716        O  0.69491077  0.95251603  0.54448561    -0.56900
O717        O  0.64813576  0.97257136  0.52288352    -0.60200
In718      In  0.68050850  0.07240684  0.43852941     1.36900
C719        C  0.61330236  0.07625706  0.44314904     0.77500
O720        O  0.65575572  0.06052953  0.41725578    -0.60900
O721        O  0.67546263  0.02192449  0.42513904    -0.51900
C722        C  0.75372686  0.13543029  0.43335798     0.70200
O723        O  0.72152591  0.13731565  0.43381176    -0.46700
C724        C  0.68941274  0.05030881  0.46338616     0.74900
O725        O  0.64665400  0.10642224  0.43974236    -0.58600
O726        O  0.67715552  0.02636819  0.45340642    -0.48700
O727        O  0.61489924  0.04438455  0.44463777    -0.55000
C728        C  0.65966953  0.03022018  0.41525489     0.85100
O729        O  0.74845120  0.10061215  0.43533020    -0.56900
O730        O  0.69813699  0.08573202  0.46044355    -0.60200
In731      In  0.35788607  0.96825961  0.54190565     1.36900
C732        C  0.42699709  0.96667070  0.54042886     0.77500
O733        O  0.35191245  0.96138710  0.51935450    -0.60900
O734        O  0.34561893  0.00841220  0.52809636    -0.51900
C735        C  0.28688993  0.90255486  0.54554665     0.70200
O736        O  0.31947182  0.90218727  0.54339787    -0.46700
C737        C  0.37703371  0.00754820  0.56549002     0.74900
O738        O  0.39339906  0.93586950  0.54306574    -0.58600
O739        O  0.38512080  0.02533202  0.55419729    -0.48700
O740        O  0.42457479  0.99763864  0.53791891    -0.55000
C741        C  0.34615830  0.99064983  0.51735758     0.85100
O742        O  0.29050218  0.93722118  0.54569850    -0.56900
O743        O  0.35634617  0.96981427  0.56467992    -0.60200
In744      In  0.38873166  0.07158447  0.43733567     1.36900
C745        C  0.46081754  0.07668881  0.44128519     0.77500
O746        O  0.38396791  0.07962149  0.45967221    -0.60900
O747        O  0.34581747  0.02176117  0.45130790    -0.51900
C748        C  0.37887289  0.13518549  0.43389277     0.70200
O749        O  0.41248570  0.13728505  0.43631784    -0.46700
C750        C  0.37316727  0.03703614  0.41265341     0.74900
O751        O  0.45688936  0.10658248  0.43832503    -0.58600
O752        O  0.34731103  0.02298622  0.42211708    -0.48700
O753        O  0.42754569  0.04418068  0.44253220    -0.55000
C754        C  0.35822221  0.04328057  0.46189581     0.85100
O755        O  0.34902730  0.09967527  0.43338200    -0.56900
O756        O  0.40513142  0.06883552  0.41586592    -0.60200
C757        C  0.55053941  0.65094234  0.34775457     0.86400
C758        C  0.54636851  0.68902317  0.34707437    -0.53800
C759        C  0.58140671  0.72406527  0.34961964     0.09300
C760        C  0.61790177  0.71830017  0.35294446     0.20300
C761        C  0.58595488  0.65955034  0.33812999    -0.54500
C762        C  0.62159045  0.69478844  0.34078047     0.09400
C763        C  0.56786242  0.65329473  0.36205770    -0.54100
C764        C  0.60349506  0.68784250  0.36467016     0.10000
H765        H  0.51823741  0.68908860  0.34520685     0.14500
H766        H  0.64540256  0.74736205  0.35534262     0.00300
H767        H  0.58286511  0.63899866  0.33003573     0.14800
H768        H  0.55431010  0.62894930  0.36936790     0.14600
C769        C  0.79502387  0.85287215  0.29773265     0.86400
C770        C  0.83379911  0.85098778  0.30117997    -0.53800
C771        C  0.82962243  0.81340623  0.29992199     0.09300
C772        C  0.78614467  0.78051116  0.29562650     0.20300
C773        C  0.78291326  0.83432083  0.28351512    -0.54500
C774        C  0.77727226  0.79628478  0.28230412     0.09400
C775        C  0.76311222  0.82126143  0.30730769    -0.54100
C776        C  0.75789051  0.78362651  0.30612796     0.10000
H777        H  0.86249109  0.87716443  0.30402952     0.14500
H778        H  0.78215147  0.74984327  0.29483810     0.00300
H779        H  0.77974351  0.85068254  0.27506024     0.14800
H780        H  0.74658970  0.82756419  0.31495144     0.14600
C781        C  0.58772229  0.88115398  0.34927036     0.86400
C782        C  0.62131626  0.91385522  0.34041264    -0.53800
C783        C  0.62525538  0.95090629  0.34142662     0.09300
C784        C  0.59454640  0.95268777  0.35120410     0.20300
C785        C  0.59824797  0.89972880  0.36362105    -0.54500
C786        C  0.60206696  0.93723251  0.36483836     0.09400
C787        C  0.54880733  0.88200559  0.34535282    -0.54100
C788        C  0.55173578  0.91902105  0.34648828     0.10000
H789        H  0.64347976  0.91049549  0.33460490     0.14500
H790        H  0.59819702  0.98315972  0.35150522     0.00300
H791        H  0.60247232  0.88408973  0.37209104     0.14800
H792        H  0.52039956  0.85499880  0.34282336     0.14600
C793        C  0.84307246  0.08518248  0.30493393     0.86400
C794        C  0.80833950  0.07594521  0.31505642    -0.53800
C795        C  0.77107049  0.04434590  0.31126630     0.09300
C796        C  0.77252205  0.02354868  0.29802474     0.20300
C797        C  0.84259569  0.04473875  0.30415672    -0.54500
C798        C  0.80617794  0.01241752  0.30040385     0.09400
C799        C  0.82681423  0.08927827  0.29112623    -0.54100
C800        C  0.78993096  0.05766424  0.28756987     0.10000
H801        H  0.81274156  0.09208838  0.32451496     0.14500
H802        H  0.74275167  0.99785359  0.29487241     0.00300
H803        H  0.86832696  0.04119645  0.30694823     0.14800
H804        H  0.84298552  0.11576236  0.28476844     0.14600
C805        C  0.39943963  0.92722147  0.34737664     0.86400
C806        C  0.36304104  0.88460408  0.34928330    -0.53800
C807        C  0.32735061  0.88331796  0.35221325     0.09300
C808        C  0.33074255  0.92493820  0.35322147     0.20300
C809        C  0.38437174  0.94622519  0.33640482    -0.54500
C810        C  0.34789021  0.94464326  0.33936521     0.09400
C811        C  0.40053528  0.95025653  0.36031761    -0.54100
C812        C  0.36499579  0.94917627  0.36351045     0.10000
H813        H  0.36506573  0.85752436  0.34791109     0.14500
H814        H  0.30235718  0.92410875  0.35612736     0.00300
H815        H  0.40083552  0.96056977  0.32731637     0.14800
H816        H  0.42784714  0.96660885  0.36647094     0.14600
C817        C  0.25264336  0.06200912  0.29656233     0.86400
C818        C  0.20923330  0.02554678  0.29672482    -0.53800
C819        C  0.20651328  0.98922941  0.29401521     0.09300
C820        C  0.24863146  0.99280374  0.29190361     0.20300
C821        C  0.27599114  0.05098062  0.30709454    -0.54500
C822        C  0.27390250  0.01483263  0.30456641     0.09400
C823        C  0.27090198  0.05952956  0.28296406    -0.54100
C824        C  0.26831907  0.02344433  0.28047446     0.10000
H825        H  0.18313482  0.02868596  0.29922498     0.14500
H826        H  0.24783415  0.96400668  0.28972369     0.00300
H827        H  0.29292287  0.06925910  0.31570717     0.14800
H828        H  0.28538339  0.08458253  0.27593300     0.14600
C829        C  0.39157647  0.50170281  0.34645464     0.86400
C830        C  0.38215260  0.46749184  0.33634594    -0.53800
C831        C  0.34586207  0.43283959  0.33851960     0.09300
C832        C  0.32285713  0.43529114  0.35100249     0.20300
C833        C  0.35369717  0.50679543  0.34619609    -0.54500
C834        C  0.31795296  0.47196719  0.34832899     0.09400
C835        C  0.38880483  0.48291127  0.36052848    -0.54100
C836        C  0.35320301  0.44817309  0.36283195     0.10000
H837        H  0.40305743  0.47055602  0.32834426     0.14500
H838        H  0.29346412  0.40758114  0.35305252     0.00300
H839        H  0.35431632  0.53525405  0.34550485     0.14800
H840        H  0.41298339  0.49580052  0.36807218     0.14600
C841        C  0.25547913  0.21874293  0.29788620     0.86400
C842        C  0.27661589  0.25292352  0.30847806    -0.53800
C843        C  0.27605222  0.28744598  0.30527742     0.09300
C844        C  0.25532321  0.28521013  0.29161618     0.20300
C845        C  0.21260690  0.21390655  0.29632135    -0.54500
C846        C  0.21220090  0.24846125  0.29297395     0.09400
C847        C  0.27746030  0.23852406  0.28460976    -0.54100
C848        C  0.27737721  0.27283562  0.28130031     0.10000
H849        H  0.29167434  0.25178289  0.31754413     0.14500
H850        H  0.25593741  0.31364201  0.28906764     0.00300
H851        H  0.18490988  0.18526171  0.29775071     0.14800
H852        H  0.29263461  0.22658865  0.27838533     0.14600
C853        C  0.13017289  0.66337897  0.34935970     0.86400
C854        C  0.10468246  0.67387811  0.33951262    -0.53800
C855        C  0.10353593  0.70829330  0.34284447     0.09300
C856        C  0.13007915  0.72988944  0.35546227     0.20300
C857        C  0.17230521  0.70121243  0.34895998    -0.54500
C858        C  0.17253917  0.73574393  0.35231283     0.09400
C859        C  0.11306896  0.66347305  0.36344879    -0.54100
C860        C  0.11314861  0.69801348  0.36663556     0.10000
H861        H  0.09061807  0.65713855  0.33036506     0.14500
H862        H  0.13066294  0.75796799  0.35856187     0.00300
H863        H  0.19985406  0.70079786  0.34627293     0.14800
H864        H  0.10068307  0.63769170  0.37021386     0.14600
C865        C  0.97720750  0.79782131  0.30063863     0.86400
C866        C  0.98662880  0.77612195  0.31223359    -0.53800
C867        C  0.02135898  0.77397389  0.31012846     0.09300
C868        C  0.04296370  0.79292125  0.29663860     0.20300
C869        C  0.01692092  0.83873418  0.29963137    -0.54500
C870        C  0.05167049  0.83683382  0.29723639     0.09400
C871        C  0.97613949  0.77472801  0.28784104    -0.54100
C872        C  0.01005283  0.77204994  0.28570993     0.10000
H873        H  0.96882920  0.76450277  0.32138476     0.14500
H874        H  0.06933849  0.78899324  0.29455691     0.00300
H875        H  0.01703232  0.86692747  0.30086922     0.14800
H876        H  0.95034650  0.76154955  0.28089897     0.14600
C877        C  0.12565628  0.50615000  0.34750398     0.86400
C878        C  0.16807489  0.51011367  0.34822073    -0.53800
C879        C  0.16788856  0.47539279  0.35146111     0.09300
C880        C  0.12514077  0.43921198  0.35364180     0.20300
C881        C  0.10315012  0.47165929  0.33704273    -0.54500
C882        C  0.10255990  0.43654857  0.34037673     0.09400
C883        C  0.10580667  0.48760595  0.36116085    -0.54100
C884        C  0.10538846  0.45286214  0.36439496     0.10000
H885        H  0.19594748  0.53786026  0.34590566     0.14500
H886        H  0.12502463  0.41098454  0.35628733     0.00300
H887        H  0.09224910  0.47479964  0.32726448     0.14800
H888        H  0.09287320  0.50100213  0.36776709     0.14600
C889        C  0.01969317  0.28211629  0.27900551     0.86400
C890        C  0.03303771  0.31419211  0.29006897    -0.53800
C891        C  0.04261876  0.30403852  0.30219432     0.09300
C892        C  0.03745916  0.26134475  0.30232315     0.20300
C893        C  0.05351307  0.27132843  0.27824355    -0.54500
C894        C  0.06425575  0.26148347  0.29038241     0.09400
C895        C  0.98408625  0.24449712  0.28535922    -0.54100
C896        C  0.99299019  0.23337444  0.29744977     0.10000
H897        H  0.03504170  0.34316414  0.28838035     0.14500
H898        H  0.04444753  0.25337636  0.31237137     0.00300
H899        H  0.06796722  0.27201307  0.26869097     0.14800
H900        H  0.95431414  0.22642764  0.28083857     0.14600
C901        C  0.08539889  0.40034091  0.33140969    -0.00200
C902        C  0.10852458  0.38156118  0.32888101    -0.12100
C903        C  0.09435590  0.34844034  0.32003669     0.02000
C904        C  0.05596256  0.33308964  0.31371559    -0.00300
C905        C  0.03206754  0.35063728  0.31681949    -0.12000
C906        C  0.04641753  0.38399861  0.32546105     0.01900
H907        H  0.13855100  0.39383975  0.33338221     0.14900
H908        H  0.00240989  0.33894294  0.31207300     0.14900
C909        C  0.02010482  0.40029413  0.32822956     0.36500
C910        C  0.12118677  0.33300963  0.31693138     0.36400
N911        N  0.99889741  0.41324273  0.33042244    -0.43800
N912        N  0.14347390  0.32143390  0.31460766    -0.43800
C913        C  0.12811396  0.54746654  0.34579226    -0.00200
C914        C  0.15409191  0.57771325  0.35497944    -0.12100
C915        C  0.15605424  0.61502059  0.35582558     0.02000
C916        C  0.13165068  0.62420038  0.34724289    -0.00300
C917        C  0.10614121  0.59449077  0.33782845    -0.12000
C918        C  0.10362674  0.55654340  0.33713379     0.01900
H919        H  0.17219529  0.57152733  0.36209090     0.14900
H920        H  0.08599495  0.59941265  0.33137871     0.14900
C921        C  0.07291491  0.52758024  0.32815772     0.36500
C922        C  0.18247854  0.64253303  0.36616318     0.36400
N923        N  0.04775524  0.50535715  0.32083621    -0.43800
N924        N  0.20382466  0.66434149  0.37444229    -0.43800
C925        C  0.07945263  0.72380872  0.33513421    -0.00200
C926        C  0.09279036  0.76540237  0.33538273    -0.12100
C927        C  0.07169950  0.78144598  0.32841260     0.02000
C928        C  0.03840589  0.75660653  0.31998344    -0.00300
C929        C  0.02377092  0.71506761  0.32004929    -0.12000
C930        C  0.04280400  0.69837529  0.32790452     0.01900
H931        H  0.12010087  0.78601125  0.34088159     0.14900
H932        H  0.99719877  0.69553894  0.31397157     0.14900
C933        C  0.02234909  0.65506871  0.32887951     0.36500
C934        C  0.08450431  0.82352747  0.33021581     0.36400
N935        N  0.00554432  0.62031783  0.32969384    -0.43800
N936        N  0.09469716  0.85719808  0.33177130    -0.43800
C937        C  0.17378678  0.25071847  0.29193425    -0.00200
C938        C  0.14170382  0.22857363  0.30105570    -0.12100
C939        C  0.10575646  0.23091371  0.30086525     0.02000
C940        C  0.10122417  0.25639243  0.29144222    -0.00300
C941        C  0.13368921  0.27872393  0.28248885    -0.12000
C942        C  0.16882742  0.27551639  0.28240819     0.01900
H943        H  0.14486419  0.20964531  0.30856961     0.14900
H944        H  0.13216033  0.29960155  0.27543372     0.14900
C945        C  0.19816154  0.29755780  0.27199004     0.36500
C946        C  0.07446864  0.20633736  0.31042496     0.36400
N947        N  0.22058115  0.31620321  0.26347537    -0.43800
N948        N  0.04990800  0.18636282  0.31822908    -0.43800
C949        C  0.27830007  0.47047736  0.34871928    -0.00200
C950        C  0.25424835  0.45586703  0.36038555    -0.12100
C951        C  0.21772415  0.45648869  0.36146174     0.02000
C952        C  0.20512471  0.47215823  0.35073272    -0.00300
C953        C  0.22850268  0.48528178  0.33887079    -0.12000
C954        C  0.26464254  0.48422183  0.33773752     0.01900
H955        H  0.26455078  0.44492547  0.36879629     0.14900
H956        H  0.21823124  0.49605798  0.33040159     0.14900
C957        C  0.28621345  0.49571248  0.32501067     0.36500
C958        C  0.19476572  0.44247696  0.37385942     0.36400
N959        N  0.30314356  0.50447710  0.31474539    -0.43800
N960        N  0.17653121  0.43109293  0.38382994    -0.43800
C961        C  0.32938033  0.39605886  0.32975451    -0.00200
C962        C  0.30740665  0.35805843  0.33591233    -0.12100
C963        C  0.28951785  0.32252145  0.32823892     0.02000
C964        C  0.29435027  0.32426383  0.31400183    -0.00300
C965        C  0.31593379  0.36217690  0.30780076    -0.12000
C966        C  0.33292307  0.39780760  0.31543867     0.01900
H967        H  0.30362298  0.35583819  0.34680832     0.14900
H968        H  0.31939796  0.36415740  0.29687327     0.14900
C969        C  0.35166744  0.43544100  0.30814024     0.36500
C970        C  0.26447549  0.28502274  0.33523271     0.36400
N971        N  0.36663775  0.46547766  0.30221261    -0.43800
N972        N  0.24437239  0.25501251  0.34085148    -0.61800
C973        C  0.16699041  0.94992929  0.29373365    -0.00200
C974        C  0.16664358  0.91508690  0.29828836    -0.12100
C975        C  0.13063692  0.87770627  0.29892450     0.02000
C976        C  0.09269697  0.87434237  0.29532752    -0.00300
C977        C  0.09362110  0.90886104  0.28994462    -0.12000
C978        C  0.12976134  0.94600999  0.28907308     0.01900
H979        H  0.19470351  0.91689437  0.30166665     0.14900
H980        H  0.06582048  0.90697966  0.28619386     0.14900
C981        C  0.12703457  0.97879875  0.28295673     0.36500
C982        C  0.13511280  0.84433239  0.30335689     0.36400
N983        N  0.12364559  0.00447768  0.27811029    -0.43800
N984        N  0.14046503  0.81841919  0.30673922    -0.43800
C985        C  0.25380818  0.17772189  0.29958173    -0.00200
C986        C  0.23384665  0.15012299  0.28896202    -0.12100
C987        C  0.23338160  0.11360910  0.28795550     0.02000
C988        C  0.25250422  0.10205981  0.29797293    -0.00300
C989        C  0.27104042  0.12853261  0.30899258    -0.12000
C990        C  0.27220166  0.16586027  0.30990365     0.01900
H991        H  0.21954842  0.15802500  0.28089190     0.14900
H992        H  0.28522870  0.12075470  0.31703219     0.14900
C993        C  0.29318028  0.19004196  0.32158264     0.36500
C994        C  0.21465056  0.08984514  0.27593060     0.36400
N995        N  0.31043047  0.20810373  0.33115974    -0.43800
N996        N  0.20037570  0.07179496  0.26607075    -0.43800
C997        C  0.28804235  0.84510512  0.35245081    -0.00200
C998        C  0.26468022  0.83200356  0.34052223    -0.12100
C999        C  0.22620820  0.79726713  0.34047851     0.02000
C1000       C  0.21094591  0.77479742  0.35246955    -0.00300
C1001       C  0.23512339  0.78686205  0.36425524    -0.12000
C1002       C  0.27369532  0.82164861  0.36427479     0.01900
H1003       H  0.27631295  0.84931096  0.33127610     0.14900
H1004       H  0.22422666  0.76861709  0.37333010     0.14900
C1005       C  0.29865667  0.83232957  0.37634520     0.36500
C1006       C  0.20307102  0.78468161  0.32800002     0.36400
N1007       N  0.31911318  0.84125998  0.38592198    -0.43800
N1008       N  0.18431963  0.77415252  0.31804838    -0.43800
C1009       C  0.29352129  0.99777863  0.31334359    -0.00200
C1010       C  0.26862491  0.96420968  0.32119490    -0.12100
C1011       C  0.28485209  0.94619439  0.32961440     0.02000
C1012       C  0.32783637  0.96186493  0.33032627    -0.00300
C1013       C  0.35263639  0.99591082  0.32228999    -0.12000
C1014       C  0.33594877  0.01375249  0.31389643     0.01900
H1015       H  0.23597223  0.95221918  0.32088039     0.14900
H1016       H  0.38541913  0.00942305  0.32270447     0.14900
C1017       C  0.36300756  0.04815275  0.30582509     0.36500
C1018       C  0.25523792  0.91194200  0.33717131     0.36400
N1019       N  0.38486143  0.07565984  0.29934299    -0.43800
N1020       N  0.22977881  0.88548844  0.34318606    -0.43800
C1021       C  0.88533155  0.12275290  0.30749257    -0.00200
C1022       C  0.92006650  0.12278364  0.30224024    -0.12100
C1023       C  0.95716642  0.15841081  0.30032379     0.02000
C1024       C  0.96130092  0.19576245  0.30397107    -0.00300
C1025       C  0.92796644  0.19625040  0.30987261    -0.12000
C1026       C  0.89015597  0.16077187  0.31131714     0.01900
H1027       H  0.91767866  0.09553079  0.29813727     0.14900
H1028       H  0.93028683  0.22510193  0.31204168     0.14900
C1029       C  0.85631240  0.16557769  0.31538978     0.36500
C1030       C  0.98853978  0.15612851  0.29277876     0.36400
N1031       N  0.82951134  0.17000251  0.31866081    -0.43800
N1032       N  0.01324077  0.15391483  0.28659861    -0.43800
C1033       C  0.51427684  0.92301494  0.34643106    -0.00200
C1034       C  0.50120958  0.93343337  0.33453211    -0.12100
C1035       C  0.46433560  0.93445433  0.33404472     0.02000
C1036       C  0.43984623  0.92599420  0.34589222    -0.00300
C1037       C  0.45288140  0.91388639  0.35755288    -0.12000
C1038       C  0.48920440  0.91262371  0.35794430     0.01900
H1039       H  0.51933078  0.93960748  0.32542757     0.14900
H1040       H  0.43437557  0.90537565  0.36663088     0.14900
C1041       C  0.50023894  0.90087240  0.37046320     0.36500
C1042       C  0.45165615  0.94056230  0.32090044     0.36400
N1043       N  0.50908413  0.89192029  0.38059013    -0.43800
N1044       N  0.44218752  0.94501035  0.31014274    -0.43800
C1045       C  0.66173862  0.98576800  0.33536057    -0.00200
C1046       C  0.65940484  0.99625311  0.32190888    -0.12100
C1047       C  0.69474406  0.01794940  0.31408150     0.02000
C1048       C  0.73348272  0.02922766  0.31969521    -0.00300
C1049       C  0.73585466  0.02194838  0.33351355    -0.12000
C1050       C  0.70060695  0.00025326  0.34129357     0.01900
H1051       H  0.62975132  0.98511461  0.31722342     0.14900
H1052       H  0.76521893  0.03053016  0.33802532     0.14900
C1053       C  0.70542005  0.99019819  0.35499988     0.36500
C1054       C  0.68980113  0.02752899  0.30032035     0.36400
N1055       N  0.71064059  0.98262906  0.36591533    -0.43800
N1056       N  0.68427769  0.03475957  0.28938855    -0.43800
C1057       C  0.79828594  0.89482799  0.29826304    -0.00200
C1058       C  0.76558639  0.89886832  0.30331848    -0.12100
C1059       C  0.76702176  0.93611024  0.30396507     0.02000
C1060       C  0.80124681  0.97112541  0.29905852    -0.00300
C1061       C  0.83263659  0.96697947  0.29304664    -0.12000
C1062       C  0.83110486  0.92954934  0.29235181     0.01900
H1063       H  0.73762353  0.87289018  0.30649883     0.14900
H1064       H  0.85846893  0.99319186  0.28867504     0.14900
C1065       C  0.86303677  0.92766869  0.28504207     0.36500
C1066       C  0.73289255  0.93688118  0.31005378     0.36400
N1067       N  0.88855895  0.92616557  0.27912882    -0.43800
N1068       N  0.70485260  0.93628323  0.31489047    -0.43800
C1069       C  0.93852367  0.80199745  0.30110927    -0.00200
C1070       C  0.90789067  0.78267966  0.31101821    -0.12100
C1071       C  0.87171634  0.78489769  0.31068864     0.02000
C1072       C  0.86574993  0.80742812  0.30051911    -0.00300
C1073       C  0.89573800  0.82631511  0.29064066    -0.12000
C1074       C  0.93111848  0.82336839  0.29066966     0.01900
H1075       H  0.91130575  0.76504669  0.31891650     0.14900
H1076       H  0.89116520  0.84320327  0.28266185     0.14900
C1077       C  0.95882174  0.84201061  0.27949029     0.36500
C1078       C  0.84138565  0.76413715  0.32097626     0.36400
N1079       N  0.98081020  0.85675421  0.27048066    -0.43800
N1080       N  0.81719884  0.74725906  0.32924974    -0.43800
C1081       C  0.58308510  0.76377281  0.34930429    -0.00200
C1082       C  0.55696408  0.77033825  0.35761371    -0.12100
C1083       C  0.55695451  0.80706384  0.35735464     0.02000
C1084       C  0.58380326  0.83882403  0.34866952    -0.00300
C1085       C  0.60787046  0.83045107  0.33973855    -0.12000
C1086       C  0.60818046  0.79407331  0.34015062     0.01900
H1087       H  0.53652651  0.74662717  0.36440871     0.14900
H1088       H  0.62639616  0.85133363  0.33204095     0.14900
C1089       C  0.63336543  0.78826775  0.33050545     0.36500
C1090       C  0.52859260  0.81084398  0.36608567     0.36400
N1091       N  0.65376885  0.78473987  0.32256838    -0.43800
N1092       N  0.50545530  0.81318407  0.37309351    -0.43800
C1093       C  0.51128343  0.61071718  0.34481581    -0.00200
C1094       C  0.47796929  0.61019193  0.33821944    -0.12100
C1095       C  0.43962858  0.57526950  0.33758504     0.02000
C1096       C  0.43332632  0.53939502  0.34395835    -0.00300
C1097       C  0.46825606  0.53815904  0.34809490    -0.12000
C1098       C  0.50672477  0.57288491  0.34848900     0.01900
H1099       H  0.48160634  0.63680530  0.33317079     0.14900
H1100       H  0.46527957  0.50993120  0.35153699     0.14900
C1101       C  0.54031631  0.56810869  0.35296701     0.36500
C1102       C  0.40918134  0.57733152  0.32935939     0.36400
N1103       N  0.56625650  0.56281676  0.35666302    -0.43800
N1104       N  0.38550348  0.58004940  0.32267707    -0.43800
C1105       C  0.72701525  0.75073247  0.31467434    -0.00200
C1106       C  0.73208619  0.75525786  0.32875390    -0.12100
C1107       C  0.69916407  0.73490974  0.33756950     0.02000
C1108       C  0.65936778  0.70983471  0.33228627    -0.00300
C1109       C  0.65534656  0.70214205  0.31819326    -0.12000
C1110       C  0.68870715  0.72216978  0.30942695     0.01900
H1111       H  0.76161069  0.77708419  0.33284862     0.14900
H1112       H  0.62558267  0.68278389  0.31379351     0.14900
C1113       C  0.68196253  0.71517606  0.29502830     0.36500
C1114       C  0.70796622  0.74181092  0.35188077     0.36400
N1115       N  0.67591992  0.70881240  0.28353087    -0.43800
N1116       N  0.71624191  0.74855811  0.36325934    -0.43800
C1117       C  0.36799918  0.01724015  0.39913241    -0.00200
C1118       C  0.33316516  0.97980138  0.39643595    -0.12100
C1119       C  0.32995143  0.95782969  0.38457189     0.02000
C1120       C  0.36256142  0.97291895  0.37522665    -0.00300
C1121       C  0.39578093  0.01165881  0.37745951    -0.12000
C1122       C  0.39878386  0.03379200  0.38911627     0.01900
H1123       H  0.30875947  0.96705268  0.40379581     0.14900
H1124       H  0.42020231  0.02463515  0.37009994     0.14900
C1125       C  0.43458554  0.07307122  0.39050327     0.36500
C1126       C  0.29323220  0.91972841  0.38258596     0.36400
N1127       N  0.46335946  0.10450245  0.39153279    -0.43800
N1128       N  0.26307205  0.88970067  0.38110184    -0.43800
C1129       C  0.34191619  0.00311839  0.50340531    -0.00200
C1130       C  0.33253920  0.97544215  0.49273713    -0.12100
C1131       C  0.33391660  0.98688301  0.47915777     0.02000
C1132       C  0.34657414  0.02736424  0.47593599    -0.00300
C1133       C  0.35317282  0.05438861  0.48661666    -0.12000
C1134       C  0.35000651  0.04241898  0.50024356     0.01900
H1135       H  0.32494170  0.94476666  0.49498799     0.14900
H1136       H  0.36184451  0.08532292  0.48432124     0.14900
C1137       C  0.35642249  0.07146249  0.51068533     0.36500
C1138       C  0.32392349  0.95671533  0.46878883     0.36400
N1139       N  0.36104985  0.09460723  0.51904597    -0.43800
N1140       N  0.31552456  0.93241334  0.46049079    -0.43800
C1141       C  0.61576978  0.96120171  0.37786332    -0.00200
C1142       C  0.64207720  0.95567650  0.38665659    -0.12100
C1143       C  0.65706107  0.97777520  0.39871709     0.02000
C1144       C  0.64564861  0.00629077  0.40244809    -0.00300
C1145       C  0.61925497  0.01180406  0.39381064    -0.12000
C1146       C  0.60413608  0.98968668  0.38174300     0.01900
H1147       H  0.65222112  0.93470303  0.38398717     0.14900
H1148       H  0.60968724  0.03319701  0.39661155     0.14900
C1149       C  0.57550763  0.99627874  0.37407592     0.36500
C1150       C  0.68507782  0.97124854  0.40680182     0.36400
N1151       N  0.55280925  0.00244935  0.36812371    -0.43800
N1152       N  0.70762010  0.96602323  0.41323586    -0.43800
C1153       C  0.57508915  0.07787883  0.44436993    -0.00200
C1154       C  0.57367232  0.11050756  0.43846164    -0.12100
C1155       C  0.53720803  0.11127384  0.43757025     0.02000
C1156       C  0.50094586  0.07905305  0.44288078    -0.00300
C1157       C  0.50273128  0.04731912  0.44937829    -0.12000
C1158       C  0.53923077  0.04646923  0.45019987     0.01900
H1159       H  0.60086167  0.13483971  0.43393163     0.14900
H1160       H  0.47533342  0.02269809  0.45369430     0.14900
C1161       C  0.53872708  0.01294994  0.45707792     0.36500
C1162       C  0.53778700  0.14436994  0.43036776     0.36400
N1163       N  0.53811913  0.98604261  0.46262940    -0.43800
N1164       N  0.53848134  0.17086743  0.42450443    -0.43800
C1165       C  0.46641595  0.96736722  0.54059135    -0.00200
C1166       C  0.50097984  0.00203835  0.53581850    -0.12100
C1167       C  0.53956275  0.00589382  0.53654095     0.02000
C1168       C  0.54417818  0.97435265  0.54202879    -0.00300
C1169       C  0.50959595  0.93925055  0.54651437    -0.12000
C1170       C  0.47100164  0.93563380  0.54599840     0.01900
H1171       H  0.49801688  0.02660887  0.53160643     0.14900
H1172       H  0.51285659  0.91494486  0.55081403     0.14900
C1173       C  0.43729210  0.89981704  0.55166411     0.36500
C1174       C  0.57364889  0.04238383  0.53138127     0.36400
N1175       N  0.41045549  0.87118093  0.55630951    -0.43800
N1176       N  0.60096839  0.07164194  0.52726890    -0.43800
C1177       C  0.68886377  0.01727501  0.50528504    -0.00200
C1178       C  0.67337737  0.98741499  0.49517805    -0.12100
C1179       C  0.67473902  0.99731787  0.48144171     0.02000
C1180       C  0.69192901  0.03810381  0.47753537    -0.00300
C1181       C  0.70920744  0.06808861  0.48763284    -0.12000
C1182       C  0.70768341  0.05809506  0.50138853     0.01900
H1183       H  0.65879868  0.95594607  0.49806989     0.14900
H1184       H  0.72255297  0.09953391  0.48485177     0.14900
C1185       C  0.72247764  0.09016003  0.51130081     0.36500
C1186       C  0.65624722  0.96469684  0.47175996     0.36400
N1187       N  0.73405273  0.11584820  0.51923862    -0.43800
N1188       N  0.64127647  0.93846616  0.46403413    -0.43800
C1189       C  0.04612250  0.39521532  0.40164246    -0.00200
C1190       C  0.03439539  0.37350467  0.38942453    -0.12100
C1191       C  0.05478494  0.39082259  0.37729565     0.02000
C1192       C  0.08697694  0.43107427  0.37720349    -0.00300
C1193       C  0.09944883  0.45247318  0.38949286    -0.12000
C1194       C  0.07959495  0.43492118  0.40166925     0.01900
H1195       H  0.00860996  0.34310378  0.38930609     0.14900
H1196       H  0.12415554  0.48344303  0.38950143     0.14900
C1197       C  0.09231100  0.45943818  0.41379954     0.36500
C1198       C  0.04038159  0.36711170  0.36505876     0.36400
N1199       N  0.10250226  0.47921202  0.42348621    -0.43800
N1200       N  0.02826783  0.34722146  0.35543938    -0.43800
C1201       C  0.87116334  0.24312989  0.43055467    -0.00200
C1202       C  0.83642280  0.24205360  0.42506439    -0.12100
C1203       C  0.79844979  0.20700266  0.42534348     0.02000
C1204       C  0.79432792  0.17155219  0.43122764    -0.00300
C1205       C  0.82943787  0.17173047  0.43599640    -0.12000
C1206       C  0.86766678  0.20707488  0.43574873     0.01900
H1207       H  0.83861896  0.26915169  0.42078866     0.14900
H1208       H  0.82678576  0.14466213  0.44046161     0.14900
C1209       C  0.90208210  0.20566464  0.44144951     0.36500
C1210       C  0.76428860  0.20864264  0.41953233     0.36400
N1211       N  0.92955094  0.20433984  0.44602663    -0.43800
N1212       N  0.73699570  0.21009638  0.41486987    -0.43800
C1213       C  0.00214560  0.34363199  0.47502394    -0.00200
C1214       C  0.97092805  0.32638682  0.48467294    -0.12100
C1215       C  0.97978375  0.32820241  0.49855577     0.02000
C1216       C  0.02071054  0.34885325  0.50300616    -0.00300
C1217       C  0.05186210  0.36435857  0.49328482    -0.12000
C1218       C  0.04297431  0.36141464  0.47939373     0.01900
H1219       H  0.93943521  0.31221268  0.48136633     0.14900
H1220       H  0.08341420  0.37989305  0.49657184     0.14900
C1221       C  0.07639094  0.37917826  0.46994438     0.36500
C1222       C  0.94621756  0.31054723  0.50793847     0.36400
N1223       N  0.10314040  0.39327778  0.46235858    -0.43800
N1224       N  0.91903703  0.29606039  0.51534842    -0.43800
C1225       C  0.04651806  0.69138463  0.40239920    -0.00200
C1226       C  0.08680693  0.69934185  0.40357443    -0.12100
C1227       C  0.10996286  0.70363456  0.39200765     0.02000
C1228       C  0.09321219  0.70123815  0.37903144    -0.00300
C1229       C  0.05422182  0.69648554  0.37784481    -0.12000
C1230       C  0.03060818  0.69109878  0.38938888     0.01900
H1231       H  0.09934061  0.69960652  0.41350961     0.14900
H1232       H  0.04136240  0.69472611  0.36784423     0.14900
C1233       C  0.98992077  0.68448299  0.38758637     0.36500
C1234       C  0.15019441  0.70896373  0.39368366     0.36400
N1235       N  0.95729182  0.67914246  0.38613187    -0.43800
N1236       N  0.18241322  0.71323130  0.39512537    -0.43800
C1237       C  0.96903088  0.46147823  0.43854037    -0.00200
C1238       C  0.00675397  0.49725575  0.43827319    -0.12100
C1239       C  0.00934393  0.53489536  0.43836115     0.02000
C1240       C  0.97342303  0.53750131  0.43873737    -0.00300
C1241       C  0.93561140  0.50168553  0.43928067    -0.12000
C1242       C  0.93309956  0.46390371  0.43921447     0.01900
H1243       H  0.03465251  0.49595068  0.43777097     0.14900
H1244       H  0.90778386  0.50310915  0.43972047     0.14900
C1245       C  0.89335644  0.42840690  0.44007678     0.36500
C1246       C  0.04948440  0.57000470  0.43785984     0.36400
N1247       N  0.86146371  0.40001917  0.44081422    -0.43800
N1248       N  0.08177485  0.59793705  0.43745556    -0.43800
C1249       C  0.24761009  0.86501561  0.54739004    -0.00200
C1250       C  0.21135396  0.86429866  0.54384993    -0.12100
C1251       C  0.17406515  0.82810740  0.54383525     0.02000
C1252       C  0.17267938  0.79187786  0.54768019    -0.00300
C1253       C  0.20868279  0.79314979  0.55189849    -0.12000
C1254       C  0.24585884  0.82909149  0.55179041     0.01900
H1255       H  0.21237867  0.89171156  0.54045328     0.14900
H1256       H  0.20797934  0.76571013  0.55508568     0.14900
C1257       C  0.28162361  0.82800052  0.55627130     0.36500
C1258       C  0.13846807  0.82877254  0.53893818     0.36400
N1259       N  0.31024342  0.82706255  0.55984956    -0.43800
N1260       N  0.11001866  0.82929941  0.53491753    -0.43800
C1261       C  0.06582858  0.57057359  0.54200807    -0.00200
C1262       C  0.02753763  0.53589321  0.54350354    -0.12100
C1263       C  0.02332260  0.49751180  0.54361300     0.02000
C1264       C  0.05812307  0.49326284  0.54226622    -0.00300
C1265       C  0.09639333  0.52797361  0.54073867    -0.12000
C1266       C  0.10051558  0.56632497  0.54050250     0.01900
H1267       H  0.00064191  0.53871355  0.54471233     0.14900
H1268       H  0.12332208  0.52520658  0.53955032     0.14900
C1269       C  0.14050610  0.60044313  0.53821413     0.36500
C1270       C  0.98291276  0.46337260  0.54524946     0.36400
N1271       N  0.17254344  0.62771271  0.53629098    -0.43800
N1272       N  0.95046912  0.43611196  0.54652273    -0.43800
C1273       C  0.04046666  0.69191822  0.50381821    -0.00200
C1274       C  0.00098746  0.68419627  0.50073646    -0.12100
C1275       C  0.98761592  0.68037029  0.48723334     0.02000
C1276       C  0.01404018  0.68449452  0.47653034    -0.00300
C1277       C  0.05445718  0.69559047  0.47956322    -0.12000
C1278       C  0.06784779  0.69927225  0.49302036     0.01900
H1279       H  0.97994655  0.67951675  0.50888251     0.14900
H1280       H  0.07522124  0.69952090  0.47139960     0.14900
C1281       C  0.10979820  0.71034498  0.49535848     0.36500
C1282       C  0.94681857  0.67254728  0.48460927     0.36400
N1283       N  0.14346626  0.71932521  0.49715743    -0.43800
N1284       N  0.91424626  0.66660389  0.48246504    -0.43800
C1285       C  0.34642882  0.38657369  0.39992839    -0.00200
C1286       C  0.34259130  0.42124982  0.40020151    -0.12100
C1287       C  0.34270126  0.44076579  0.38814336     0.02000
C1288       C  0.34580319  0.42510204  0.37555292    -0.00300
C1289       C  0.34640960  0.38891098  0.37519084    -0.12000
C1290       C  0.34684101  0.36961179  0.38720455     0.01900
H1291       H  0.34214336  0.43463333  0.40984793     0.14900
H1292       H  0.34901912  0.37693183  0.36552363     0.14900
C1293       C  0.34911199  0.33320845  0.38611775     0.36500
C1294       C  0.34120566  0.47765019  0.38889024     0.36400
N1295       N  0.35103908  0.30409640  0.38519504    -0.43800
N1296       N  0.34009381  0.50726306  0.38938541    -0.43800
C1297       C  0.37561187  0.17192580  0.43202217    -0.00200
C1298       C  0.33958788  0.17177574  0.43547445    -0.12100
C1299       C  0.33772554  0.20758518  0.43533113     0.02000
C1300       C  0.37243589  0.24435867  0.43158104    -0.00300
C1301       C  0.40743406  0.24367400  0.42739468    -0.12000
C1302       C  0.40931943  0.20824941  0.42755420     0.01900
H1303       H  0.31335436  0.14398267  0.43878179     0.14900
H1304       H  0.43410154  0.27126844  0.42418619     0.14900
C1305       C  0.44642957  0.21026715  0.42295254     0.36500
C1306       C  0.30031730  0.20569788  0.43944434     0.36400
N1307       N  0.47613737  0.21187751  0.41925967    -0.43800
N1308       N  0.27024542  0.20403221  0.44273394    -0.43800
C1309       C  0.23172208  0.37730391  0.54972681    -0.00200
C1310       C  0.19947661  0.34616364  0.54242956    -0.12100
C1311       C  0.16098392  0.34295374  0.54200822     0.02000
C1312       C  0.15450167  0.37161786  0.54888183    -0.00300
C1313       C  0.18596709  0.40091730  0.55695719    -0.12000
C1314       C  0.22408718  0.40359300  0.55760138     0.01900
H1315       H  0.20480124  0.32534860  0.53652915     0.14900
H1316       H  0.18094263  0.42223637  0.56267463     0.14900
C1317       C  0.25447606  0.43303575  0.56663347     0.36500
C1318       C  0.12960356  0.31142853  0.53382950     0.36400
N1319       N  0.27867419  0.45629300  0.57398288    -0.43800
N1320       N  0.10442450  0.28606480  0.52730244    -0.43800
C1321       C  0.35291243  0.35416994  0.47584607    -0.00200
C1322       C  0.37422199  0.34444498  0.48542960    -0.12100
C1323       C  0.37072491  0.34905786  0.49935502     0.02000
C1324       C  0.34533100  0.36366573  0.50399188    -0.00300
C1325       C  0.32291803  0.37211313  0.49447854    -0.12000
C1326       C  0.32630514  0.36736340  0.48052019     0.01900
H1327       H  0.39483732  0.33435901  0.48202117     0.14900
H1328       H  0.30337088  0.38342596  0.49795172     0.14900
C1329       C  0.30389372  0.37848071  0.47130451     0.36500
C1330       C  0.39599946  0.34154511  0.50852430     0.36400
N1331       N  0.28589783  0.38752484  0.46397706    -0.43800
N1332       N  0.41647836  0.33574288  0.51583458    -0.43800
C1333       C  0.66234140  0.68219213  0.40115277    -0.00200
C1334       C  0.66281400  0.66160577  0.38941360    -0.12100
C1335       C  0.64667959  0.66579148  0.37716883     0.02000
C1336       C  0.62881345  0.69037296  0.37650908    -0.00300
C1337       C  0.63132201  0.71369256  0.38780633    -0.12000
C1338       C  0.64842244  0.71022935  0.40006859     0.01900
H1339       H  0.67477198  0.64114874  0.38985397     0.14900
H1340       H  0.61844040  0.73335463  0.38721090     0.14900
C1341       C  0.65006751  0.73485903  0.41139257     0.36500
C1342       C  0.64909819  0.64475003  0.36536491     0.36400
N1343       N  0.65167910  0.75489958  0.42042937    -0.43800
N1344       N  0.65189205  0.62847918  0.35588636    -0.43800
C1345       C  0.87409323  0.65814914  0.43160832    -0.00200
C1346       C  0.84033468  0.62639911  0.42506193    -0.12100
C1347       C  0.80247344  0.62440002  0.42487302     0.02000
C1348       C  0.79761558  0.65445599  0.43149859    -0.00300
C1349       C  0.83192049  0.68754173  0.43727769    -0.12000
C1350       C  0.86990811  0.68963978  0.43740866     0.01900
H1351       H  0.84327401  0.60250014  0.42026408     0.14900
H1352       H  0.82872874  0.71104949  0.44226258     0.14900
C1353       C  0.90325053  0.72329972  0.44425292     0.36500
C1354       C  0.76934572  0.59120960  0.41774238     0.36400
N1355       N  0.92994054  0.75027140  0.44976178    -0.43800
N1356       N  0.74291146  0.56468891  0.41197435    -0.43800
C1357       C  0.57445114  0.53419613  0.43911160    -0.00200
C1358       C  0.53852167  0.53627227  0.43865106    -0.12100
C1359       C  0.50027225  0.50150847  0.43796081     0.02000
C1360       C  0.49711891  0.46312752  0.43760908    -0.00300
C1361       C  0.53300771  0.46090667  0.43825116    -0.12000
C1362       C  0.57138072  0.49582438  0.43908801     0.01900
H1363       H  0.54018774  0.56536691  0.43872976     0.14900
H1364       H  0.53115772  0.43173596  0.43814621     0.14900
C1365       C  0.60681034  0.49109127  0.43985282     0.36500
C1366       C  0.46502044  0.50659547  0.43745112     0.36400
N1367       N  0.63514330  0.48720125  0.44050998    -0.43800
N1368       N  0.43680836  0.51072867  0.43707475    -0.43800
C1369       C  0.66856339  0.88212355  0.55034770    -0.00200
C1370       C  0.63974459  0.85150123  0.55868432    -0.12100
C1371       C  0.63576128  0.81322205  0.55892088     0.02000
C1372       C  0.66080267  0.80477865  0.55059105    -0.00300
C1373       C  0.69163541  0.83614204  0.54301637    -0.12000
C1374       C  0.69571962  0.87459823  0.54281243     0.01900
H1375       H  0.61943226  0.85715694  0.56482694     0.14900
H1376       H  0.71138615  0.83012807  0.53670703     0.14900
C1377       C  0.72633717  0.90475453  0.53414460     0.36500
C1378       C  0.60580147  0.78335539  0.56785438     0.36400
N1379       N  0.75091421  0.92884728  0.52717971    -0.43800
N1380       N  0.58188748  0.75957039  0.57506751    -0.43800
C1381       C  0.52901186  0.58200040  0.54305999    -0.00200
C1382       C  0.53038713  0.54602380  0.54264022    -0.12100
C1383       C  0.49481026  0.50843167  0.54229969     0.02000
C1384       C  0.45635238  0.50607773  0.54244079    -0.00300
C1385       C  0.45492920  0.54203518  0.54266640    -0.12000
C1386       C  0.49060218  0.57969126  0.54294154     0.01900
H1387       H  0.55952606  0.54711374  0.54264604     0.14900
H1388       H  0.42574085  0.54083328  0.54270200     0.14900
C1389       C  0.48650919  0.61517466  0.54310756     0.36500
C1390       C  0.49915510  0.47305984  0.54191955     0.36400
N1391       N  0.48299834  0.64349335  0.54321375    -0.43800
N1392       N  0.50280524  0.44482604  0.54160391    -0.43800
C1393       C  0.67561967  0.69139813  0.50514443    -0.00200
C1394       C  0.65821125  0.70391259  0.49501069    -0.12100
C1395       C  0.66369305  0.69922006  0.48121993     0.02000
C1396       C  0.68643104  0.68083309  0.47729127    -0.00300
C1397       C  0.70548855  0.67010786  0.48741334    -0.12000
C1398       C  0.70068596  0.67557048  0.50121371     0.01900
H1399       H  0.63934830  0.71661789  0.49786874     0.14900
H1400       H  0.72347452  0.65644255  0.48454748     0.14900
C1401       C  0.72020245  0.66273600  0.51104366     0.36500
C1402       C  0.64371800  0.71161964  0.47142849     0.36400
N1403       N  0.73595303  0.65251481  0.51890088    -0.43800
N1404       N  0.62769853  0.72170748  0.46363372    -0.43800
C1405       C  0.67804843  0.62087818  0.60418505    -0.00200
C1406       C  0.68565042  0.66058065  0.60452354    -0.12100
C1407       C  0.68451362  0.67971370  0.59255556     0.02000
C1408       C  0.67694098  0.65924798  0.58003195    -0.00300
C1409       C  0.67213992  0.62054565  0.57966327    -0.12000
C1410       C  0.67184395  0.60095549  0.59163125     0.01900
H1411       H  0.69067074  0.67592650  0.61419286     0.14900
H1412       H  0.66609178  0.60458727  0.57007765     0.14900
C1413       C  0.66483607  0.56032278  0.59080403     0.36500
C1414       C  0.69093451  0.72008785  0.59338814     0.36400
N1415       N  0.65928158  0.52780282  0.59015897    -0.43800
N1416       N  0.69622134  0.75250091  0.59411103    -0.43800
C1417       C  0.75271703  0.72547924  0.66467537    -0.00200
C1418       C  0.77555876  0.71230017  0.65755714    -0.12100
C1419       C  0.75697486  0.67616942  0.65027806     0.02000
C1420       C  0.71394341  0.65340912  0.64918679    -0.00300
C1421       C  0.69094199  0.66807901  0.65574788    -0.12000
C1422       C  0.70996575  0.70379464  0.66344760     0.01900
H1423       H  0.80841969  0.73040742  0.65778030     0.14900
H1424       H  0.65808128  0.65190515  0.65475485     0.14900
C1425       C  0.68519341  0.71788962  0.66984784     0.36500
C1426       C  0.78361218  0.66296173  0.64481794     0.36400
N1427       N  0.66552395  0.72958239  0.67488055    -0.43800
N1428       N  0.80638964  0.65384438  0.64067655    -0.43800
C1429       C  0.39293742  0.02918055  0.57849970    -0.00200
C1430       C  0.43081174  0.06473499  0.57840553    -0.12100
C1431       C  0.44786321  0.08640042  0.59034572     0.02000
C1432       C  0.42631989  0.07330335  0.60265911    -0.00300
C1433       C  0.38952835  0.03665742  0.60295964    -0.12000
C1434       C  0.37278181  0.01438639  0.59101220     0.01900
H1435       H  0.44743682  0.07545391  0.56897408     0.14900
H1436       H  0.37293085  0.02637890  0.61239896     0.14900
C1437       C  0.33401803  0.97767202  0.59179350     0.36500
C1438       C  0.48778370  0.12181467  0.58976117     0.36400
N1439       N  0.30293857  0.94824558  0.59243582    -0.43800
N1440       N  0.51979788  0.15013699  0.58936768    -0.43800
C1441       C  0.31620549  0.03430453  0.66559019    -0.00200
C1442       C  0.35632119  0.06064354  0.67015637    -0.12100
C1443       C  0.38922193  0.07756833  0.66128713     0.02000
C1444       C  0.38282428  0.06987729  0.64730556    -0.00300
C1445       C  0.34328132  0.04315372  0.64256140    -0.12000
C1446       C  0.31010042  0.02494154  0.65158041     0.01900
H1447       H  0.36224612  0.06966034  0.68071253     0.14900
H1448       H  0.33799330  0.03797169  0.63174640     0.14900
C1449       C  0.27038412  0.99740178  0.64613409     0.36500
C1450       C  0.42927200  0.10471590  0.66669973     0.36400
N1451       N  0.23859174  0.97540551  0.64167001    -0.43800
N1452       N  0.46135100  0.12640112  0.67102109    -0.43800
C1453       C  0.79071688  0.94147792  0.67987147    -0.00200
C1454       C  0.81761173  0.93740530  0.68885947    -0.12100
C1455       C  0.82259589  0.90344575  0.68891643     0.02000
C1456       C  0.80022523  0.87098229  0.67983698    -0.00300
C1457       C  0.77395744  0.87525482  0.67062458    -0.12000
C1458       C  0.76866874  0.90919350  0.67059731     0.01900
H1459       H  0.83455717  0.96097881  0.69625479     0.14900
H1460       H  0.75550030  0.85149811  0.66360388     0.14900
C1461       C  0.73828199  0.90727344  0.66132830     0.36500
C1462       C  0.85004107  0.90232922  0.69888766     0.36400
N1463       N  0.71347265  0.90398851  0.65371026    -0.43800
N1464       N  0.87204044  0.90153011  0.70688936    -0.43800
C1465       C  0.68943583  0.08566775  0.60555529    -0.00200
C1466       C  0.70995517  0.10904360  0.59422154    -0.12100
C1467       C  0.71109047  0.09066713  0.58198705     0.02000
C1468       C  0.69164756  0.04811321  0.58110650    -0.00300
C1469       C  0.67378177  0.02535476  0.59284781    -0.12000
C1470       C  0.67194452  0.04357347  0.60486879     0.01900
H1471       H  0.72316436  0.14146838  0.59470543     0.14900
H1472       H  0.65881952  0.99275743  0.59246622     0.14900
C1473       C  0.64929484  0.01800363  0.61606351     0.36500
C1474       C  0.73057578  0.11611013  0.57042877     0.36400
N1475       N  0.63055946  0.99706521  0.62486527    -0.43800
N1476       N  0.74620486  0.13662813  0.56118384    -0.43800
C1477       C  0.59616680  0.11184882  0.63525379    -0.00200
C1478       C  0.59268882  0.14002700  0.64348426    -0.12100
C1479       C  0.55656860  0.14167542  0.64400830     0.02000
C1480       C  0.52246815  0.11503274  0.63599018    -0.00300
C1481       C  0.52389726  0.08320866  0.62943263    -0.12000
C1482       C  0.55954932  0.08043270  0.62948622     0.01900
H1483       H  0.61852840  0.16147957  0.64945348     0.14900
H1484       H  0.49756485  0.06090522  0.62385998     0.14900
C1485       C  0.55675906  0.04427079  0.62393583     0.36500
C1486       C  0.55565488  0.17103715  0.65297573     0.36400
N1487       N  0.55418111  0.01513395  0.61947898    -0.43800
N1488       N  0.55528055  0.19480577  0.66012979    -0.43800
C1489       C  0.70581069  0.07998561  0.65092444    -0.00200
C1490       C  0.68322410  0.03871080  0.65404660    -0.12100
C1491       C  0.70015596  0.01991621  0.66187720     0.02000
C1492       C  0.74033637  0.04264072  0.66693431    -0.00300
C1493       C  0.76171406  0.08422046  0.66450163    -0.12000
C1494       C  0.74531326  0.10284280  0.65649234     0.01900
H1495       H  0.65227231  0.02103624  0.65034996     0.14900
H1496       H  0.79162776  0.10259431  0.66890028     0.14900
C1497       C  0.76940441  0.14588985  0.65485068     0.36500
C1498       C  0.67469824  0.97810672  0.66543879     0.36400
N1499       N  0.78978389  0.18042802  0.65390188    -0.43800
N1500       N  0.65423182  0.94473120  0.66846939    -0.43800
C1501       C  0.37288096  0.35797639  0.58012874    -0.00200
C1502       C  0.39622701  0.33874037  0.57982275    -0.12100
C1503       C  0.41369751  0.33388200  0.59173305     0.02000
C1504       C  0.40751126  0.34806545  0.60417097    -0.00300
C1505       C  0.38190715  0.36454144  0.60466283    -0.12000
C1506       C  0.36443262  0.36944993  0.59282769     0.01900
H1507       H  0.40281051  0.32958180  0.57019221     0.14900
H1508       H  0.37714244  0.37538185  0.61426903     0.14900
C1509       C  0.33873596  0.38717263  0.59405966     0.36500
C1510       C  0.43975302  0.31650650  0.59083896     0.36400
N1511       N  0.31811767  0.40133261  0.59508058    -0.43800
N1512       N  0.46055512  0.30249008  0.59007228    -0.43800
C1513       C  0.52775273  0.43028224  0.63393476    -0.00200
C1514       C  0.53630958  0.45572095  0.64531145    -0.12100
C1515       C  0.57250046  0.49333159  0.64626153     0.02000
C1516       C  0.60126538  0.50645892  0.63555914    -0.00300
C1517       C  0.59305698  0.47977830  0.62460443    -0.12000
C1518       C  0.55760526  0.44282866  0.62366087     0.01900
H1519       H  0.51509191  0.44673041  0.65361146     0.14900
H1520       H  0.61469709  0.48843333  0.61635146     0.14900
C1521       C  0.55274935  0.41885859  0.61169640     0.36500
C1522       C  0.57831609  0.51630727  0.65845715     0.36400
N1523       N  0.54887631  0.39980299  0.60210733    -0.43800
N1524       N  0.58168411  0.53351112  0.66847431    -0.43800
C1525       C  0.46018106  0.20406784  0.62599637    -0.00200
C1526       C  0.48802683  0.23476174  0.63467587    -0.12100
C1527       C  0.48919840  0.27168180  0.63582672     0.02000
C1528       C  0.46299693  0.27966675  0.62777889    -0.00300
C1529       C  0.43475053  0.24896129  0.61928293    -0.12000
C1530       C  0.43176350  0.21111158  0.61882115     0.01900
H1531       H  0.50727443  0.22929777  0.64144256     0.14900
H1532       H  0.41381117  0.25386823  0.61318479     0.14900
C1533       C  0.39719406  0.17956558  0.61166781     0.36500
C1534       C  0.51518122  0.29888150  0.64628599     0.36400
N1535       N  0.36928794  0.15433147  0.60601255    -0.43800
N1536       N  0.53609344  0.32042799  0.65470022    -0.43800
C1537       C  0.22875301  0.15102556  0.68147643    -0.00200
C1538       C  0.25563083  0.14614881  0.67297346    -0.12100
C1539       C  0.25778070  0.11046319  0.67309946     0.02000
C1540       C  0.23331060  0.07891788  0.68214603    -0.00300
C1541       C  0.20566051  0.08359086  0.69037599    -0.12000
C1542       C  0.20295039  0.11884428  0.69003418     0.01900
H1543       H  0.27531252  0.17053653  0.66625699     0.14900
H1544       H  0.18691750  0.05995923  0.69747292     0.14900
C1545       C  0.17516708  0.12219988  0.69918917     0.36500
C1546       C  0.28685949  0.10839051  0.66426152     0.36400
N1547       N  0.15302366  0.12506477  0.70654313    -0.43800
N1548       N  0.31047147  0.10819530  0.65691390    -0.43800
C1549       C  0.30829330  0.27888088  0.66312896    -0.00200
C1550       C  0.34591658  0.29760051  0.66997553    -0.12100
C1551       C  0.38270510  0.31825051  0.66289374     0.02000
C1552       C  0.38234733  0.32128336  0.64861927    -0.00300
C1553       C  0.34471012  0.30324225  0.64180479    -0.12000
C1554       C  0.30802264  0.28170282  0.64882430     0.01900
H1555       H  0.34673466  0.29595391  0.68094240     0.14900
H1556       H  0.34385635  0.30538190  0.63085065     0.14900
C1557       C  0.27100554  0.26103059  0.64092517     0.36500
C1558       C  0.42017669  0.33409217  0.67051349     0.36400
N1559       N  0.24163082  0.24452385  0.63445054    -0.43800
N1560       N  0.45012156  0.34669084  0.67667849    -0.43800
C1561       C  0.08732635  0.24065541  0.68060276    -0.00200
C1562       C  0.11253780  0.25623526  0.66916080    -0.12100
C1563       C  0.14835875  0.25393223  0.66770085     0.02000
C1564       C  0.16077715  0.23643117  0.67811915    -0.00300
C1565       C  0.13368875  0.21822028  0.68896655    -0.12000
C1566       C  0.09816732  0.22034557  0.69037899     0.01900
H1567       H  0.10461371  0.27024053  0.66112693     0.14900
H1568       H  0.14114413  0.20302041  0.69680500     0.14900
C1569       C  0.07404063  0.20174266  0.70231130     0.36500
C1570       C  0.16922247  0.26806946  0.65497823     0.36400
N1571       N  0.05530018  0.18666445  0.71195218    -0.43800
N1572       N  0.18468533  0.27964106  0.64456184    -0.43800
C1573       C  0.93672810  0.16841846  0.68732762    -0.00200
C1574       C  0.91398432  0.15656551  0.67526595    -0.12100
C1575       C  0.87929180  0.11841826  0.67410025     0.02000
C1576       C  0.86558109  0.09258152  0.68541694    -0.00300
C1577       C  0.88825479  0.10435827  0.69747904    -0.12000
C1578       C  0.92435822  0.14148152  0.69836877     0.01900
H1579       H  0.92472053  0.17626596  0.66650718     0.14900
H1580       H  0.87838628  0.08393871  0.70605139     0.14900
C1581       C  0.94893940  0.15042800  0.71047033     0.36500
C1582       C  0.86015086  0.10535903  0.66096827     0.36400
N1583       N  0.96833420  0.15720749  0.72023703    -0.43800
N1584       N  0.84516377  0.09481821  0.65038994    -0.43800
C1585       C  0.94358273  0.34527753  0.60232169    -0.00200
C1586       C  0.98353891  0.35263697  0.60311993    -0.12100
C1587       C  0.00467461  0.35314910  0.59146722     0.02000
C1588       C  0.98601619  0.34728238  0.57856429    -0.00300
C1589       C  0.94552142  0.33903738  0.57780909    -0.12000
C1590       C  0.92453326  0.33874979  0.58952922     0.01900
H1591       H  0.99886483  0.35949924  0.61288811     0.14900
H1592       H  0.93106018  0.33532206  0.56798662     0.14900
C1593       C  0.88441077  0.33390822  0.58811474     0.36500
C1594       C  0.04578853  0.36077623  0.59311267     0.36400
N1595       N  0.85226971  0.33003488  0.58693577    -0.43800
N1596       N  0.07872836  0.36692337  0.59449829    -0.43800
C1597       C  0.75034732  0.20442766  0.63081517    -0.00200
C1598       C  0.77887778  0.21018505  0.62080143    -0.12100
C1599       C  0.81598965  0.24635061  0.61982289     0.02000
C1600       C  0.82554054  0.27826403  0.62907733    -0.00300
C1601       C  0.79676688  0.27241464  0.63910567    -0.12000
C1602       C  0.75966958  0.23610565  0.64007871     0.01900
H1603       H  0.77202617  0.18628127  0.61356634     0.14900
H1604       H  0.80375180  0.29595821  0.64650796     0.14900
C1605       C  0.73302518  0.23138665  0.65121305     0.36500
C1606       C  0.84272643  0.24925289  0.60898119     0.36400
N1607       N  0.71167885  0.22758745  0.66014335    -0.43800
N1608       N  0.86354320  0.25004492  0.60029348    -0.43800
C1609       C  0.95241260  0.32423061  0.64802367    -0.00200
C1610       C  0.95456777  0.33120760  0.66212733    -0.12100
C1611       C  0.97085038  0.31426876  0.67116378     0.02000
C1612       C  0.98600204  0.28950651  0.66625781    -0.00300
C1613       C  0.98409808  0.28258918  0.65224958    -0.12000
C1614       C  0.96762152  0.29913545  0.64320346     0.01900
H1615       H  0.94272349  0.34951998  0.66624710     0.14900
H1616       H  0.99499226  0.26326138  0.64829336     0.14900
C1617       C  0.96739796  0.28886962  0.62913308     0.36500
C1618       C  0.97230955  0.32403229  0.68535747     0.36400
N1619       N  0.96724285  0.27856958  0.61808430    -0.43800
N1620       N  0.97278676  0.33232779  0.69667037    -0.43800
C1621       C  0.96095780  0.61289937  0.60332696    -0.00200
C1622       C  0.99804831  0.64924347  0.60400702    -0.12100
C1623       C  0.02119694  0.66640424  0.59225941     0.02000
C1624       C  0.00682444  0.64723428  0.57955620    -0.00300
C1625       C  0.97068957  0.60999828  0.57903645    -0.12000
C1626       C  0.94824604  0.59244077  0.59077536     0.01900
H1627       H  0.00833473  0.66487171  0.61360514     0.14900
H1628       H  0.96039411  0.59406128  0.56944994     0.14900
C1629       C  0.91288512  0.55270640  0.58980182     0.36500
C1630       C  0.05858332  0.70441889  0.59342538     0.36400
N1631       N  0.88472150  0.52075341  0.58912875    -0.43800
N1632       N  0.08856328  0.73489076  0.59436820    -0.43800
C1633       C  0.82568777  0.57150775  0.62637428    -0.00200
C1634       C  0.81397834  0.58864347  0.61579746    -0.12100
C1635       C  0.77723321  0.58893046  0.61611686     0.02000
C1636       C  0.75069248  0.57169960  0.62715568    -0.00300
C1637       C  0.76156088  0.55407214  0.63761794    -0.12000
C1638       C  0.79861065  0.55441312  0.63746912     0.01900
H1639       H  0.83386108  0.60409091  0.60743372     0.14900
H1640       H  0.74173083  0.54152256  0.64632375     0.14900
C1641       C  0.80867012  0.53885593  0.64929702     0.36500
C1642       C  0.76834459  0.60790330  0.60500708     0.36400
N1643       N  0.81629888  0.52633037  0.65885652    -0.43800
N1644       N  0.76256506  0.62375428  0.59599001    -0.43800
C1645       C  0.91541573  0.43275259  0.63363408    -0.00200
C1646       C  0.94545718  0.46700322  0.62667531    -0.12100
C1647       C  0.94533037  0.50372449  0.62623740     0.02000
C1648       C  0.91585427  0.50846898  0.63349011    -0.00300
C1649       C  0.88917554  0.47616802  0.64188032    -0.12000
C1650       C  0.88925341  0.43927414  0.64224219     0.01900
H1651       H  0.96921660  0.46529417  0.62119981     0.14900
H1652       H  0.86765183  0.47958084  0.64815327     0.14900
C1653       C  0.86294378  0.40938139  0.65190117     0.36500
C1654       C  0.97473651  0.53475369  0.61753983     0.36400
N1655       N  0.84188223  0.38558470  0.65970420    -0.43800
N1656       N  0.99890710  0.55894531  0.61049879    -0.43800
C1657       C  0.96022600  0.79924535  0.68335199    -0.00200
C1658       C  0.92442091  0.76444234  0.67960005    -0.12100
C1659       C  0.88648020  0.76269638  0.67975133     0.02000
C1660       C  0.88364870  0.79763093  0.68293092    -0.00300
C1661       C  0.92035302  0.83275791  0.68659389    -0.12000
C1662       C  0.95789835  0.83352698  0.68708384     0.01900
H1663       H  0.92581270  0.73739544  0.67737149     0.14900
H1664       H  0.91976887  0.85955066  0.68972745     0.14900
C1665       C  0.99339584  0.86944733  0.69195220     0.36500
C1666       C  0.85199180  0.72327617  0.67748733     0.36400
N1667       N  0.02164442  0.89826692  0.69595825    -0.43800
N1668       N  0.82579288  0.69048339  0.67603376    -0.43800
C1669       C  0.10167056  0.85950215  0.67390927    -0.00200
C1670       C  0.09910100  0.89477866  0.67477403    -0.12100
C1671       C  0.13451155  0.93313377  0.67498025     0.02000
C1672       C  0.17336479  0.93668011  0.67415284    -0.00300
C1673       C  0.17537233  0.90171877  0.67134520    -0.12000
C1674       C  0.14007116  0.86349745  0.67117709     0.01900
H1675       H  0.06986398  0.89226330  0.67675523     0.14900
H1676       H  0.20492656  0.90384179  0.67066296     0.14900
C1677       C  0.14428278  0.82838812  0.66933981     0.36500
C1678       C  0.13043232  0.96797341  0.67759398     0.36400
N1679       N  0.14769239  0.80030170  0.66773259    -0.43800
N1680       N  0.12691836  0.99580564  0.67966218    -0.43800
C1681       C  0.96057159  0.64730153  0.64875883    -0.00200
C1682       C  0.98890985  0.68563830  0.64377383    -0.12100
C1683       C  0.00811239  0.71951877  0.65246135     0.02000
C1684       C  0.99849329  0.71557644  0.66642526    -0.00300
C1685       C  0.97012063  0.67692474  0.67127975    -0.12000
C1686       C  0.95182056  0.64326268  0.66272528     0.01900
H1687       H  0.99469370  0.68959053  0.63299004     0.14900
H1688       H  0.96132173  0.67285610  0.68186314     0.14900
C1689       C  0.92292088  0.60481386  0.66847318     0.36500
C1690       C  0.03754031  0.75773497  0.64678448     0.36400
N1691       N  0.89989407  0.57402838  0.67310765    -0.43800
N1692       N  0.06110480  0.78838150  0.64219145    -0.43800
C1693       C  0.38551097  0.99860899  0.98612571    -0.00200
C1694       C  0.41109991  0.99611945  0.99591403    -0.12100
C1695       C  0.43284645  0.02758076  0.00515654     0.02000
C1696       C  0.43213790  0.06420181  0.00404361    -0.00300
C1697       C  0.40292111  0.06486056  0.99550190    -0.12000
C1698       C  0.37859646  0.03186116  0.98696773     0.01900
H1699       H  0.41564717  0.97038627  0.99610556     0.14900
H1700       H  0.39987623  0.09152455  0.99518894     0.14900
C1701       C  0.34616405  0.03259402  0.97949301     0.36500
C1702       C  0.45539189  0.02128351  0.01580811     0.36400
N1703       N  0.31998167  0.03306571  0.97357619    -0.43800
N1704       N  0.47316577  0.01623130  0.02442959    -0.43800
C1705       C  0.50559812  0.91679356  0.96934709    -0.00200
C1706       C  0.50878932  0.95486128  0.96740306    -0.12100
C1707       C  0.47480414  0.95994341  0.96711343     0.02000
C1708       C  0.43553202  0.92639421  0.96798388    -0.00300
C1709       C  0.43154294  0.88887791  0.97106801    -0.12000
C1710       C  0.46591313  0.88374078  0.97201089     0.01900
H1711       H  0.53854797  0.98131821  0.96612235     0.14900
H1712       H  0.40142284  0.86336247  0.97264707     0.14900
C1713       C  0.45823001  0.84456301  0.97615455     0.36500
C1714       C  0.48105889  0.00030766  0.96666527     0.36400
N1715       N  0.45042687  0.81266833  0.97965036    -0.43800
N1716       N  0.48607653  0.03267360  0.96671126    -0.43800
C1717       C  0.64509498  0.13653858  0.02152524    -0.00200
C1718       C  0.63638433  0.15737633  0.01150981    -0.12100
C1719       C  0.60042420  0.15952439  0.01175230     0.02000
C1720       C  0.57200427  0.14150820  0.02245576    -0.00300
C1721       C  0.58067786  0.11985322  0.03224954    -0.12000
C1722       C  0.61637481  0.11754576  0.03198244     0.01900
H1723       H  0.65731228  0.17122287  0.00315064     0.14900
H1724       H  0.55901474  0.10240783  0.03996467     0.14900
C1725       C  0.62157200  0.09481178  0.04269289     0.36500
C1726       C  0.59292228  0.17896700  0.00046099     0.36400
N1727       N  0.62406082  0.07558022  0.05128985    -0.43800
N1728       N  0.58706650  0.19455395  0.99137311    -0.43800
C1729       C  0.69160643  0.05350342  0.00398386    -0.00200
C1730       C  0.70010345  0.05510161  0.98997857    -0.12100
C1731       C  0.67930652  0.02123650  0.98151446     0.02000
C1732       C  0.64787025  0.98487880  0.98682705    -0.00300
C1733       C  0.64183325  0.98191846  0.00086402    -0.12000
C1734       C  0.66366131  0.01508860  0.00947212     0.01900
H1735       H  0.72159077  0.08333522  0.98530536     0.14900
H1736       H  0.61840059  0.95364309  0.00507951     0.14900
C1737       C  0.65548262  0.00742966  0.02375156     0.36500
C1738       C  0.69003564  0.02559607  0.96736152     0.36400
N1739       N  0.64721179  0.99962437  0.03505913    -0.43800
N1740       N  0.70033870  0.03024630  0.95615910    -0.43800
C1741       C  0.79742312  0.20367732  0.01498395    -0.00200
C1742       C  0.82505024  0.20779365  0.00470958    -0.12100
C1743       C  0.86248507  0.24376230  0.00291704     0.02000
C1744       C  0.87342772  0.27747315  0.01155492    -0.00300
C1745       C  0.84513526  0.27311204  0.02160351    -0.12000
C1746       C  0.80813724  0.23770039  0.02332544     0.01900
H1747       H  0.81835900  0.18291534  0.99804398     0.14900
H1748       H  0.85242650  0.29791287  0.02850361     0.14900
C1749       C  0.78201353  0.23755566  0.03399813     0.36500
C1750       C  0.88830810  0.24316584  0.99236432     0.36400
N1751       N  0.76121791  0.23793364  0.04248577    -0.43800
N1752       N  0.90782000  0.24097050  0.98376119    -0.43800
C1753       C  0.08875089  0.42583978  0.97785354    -0.00200
C1754       C  0.09352699  0.42937744  0.99191930    -0.12100
C1755       C  0.06045569  0.40846949  0.00061185     0.02000
C1756       C  0.02062477  0.38396335  0.99522925    -0.00300
C1757       C  0.01663785  0.37794667  0.98107058    -0.12000
C1758       C  0.05028287  0.39821671  0.97241947     0.01900
H1759       H  0.12322438  0.45027706  0.99614200     0.14900
H1760       H  0.98686335  0.35889559  0.97661567     0.14900
C1761       C  0.04389526  0.39095476  0.95803916     0.36500
C1762       C  0.06958548  0.41396916  0.01491356     0.36400
N1763       N  0.03754389  0.38363680  0.94660394    -0.43800
N1764       N  0.07909948  0.42026959  0.02621018    -0.43800
C1765       C  0.22090811  0.78156834  0.97056623    -0.00200
C1766       C  0.25683056  0.78581342  0.96505084    -0.12100
C1767       C  0.29293394  0.82321218  0.96512093     0.02000
C1768       C  0.29395798  0.85723050  0.97114772    -0.00300
C1769       C  0.25883907  0.85207616  0.97772679    -0.12000
C1770       C  0.22241109  0.81468256  0.97739910     0.01900
H1771       H  0.25564435  0.76083907  0.95946219     0.14900
H1772       H  0.25882393  0.87808897  0.98205717     0.14900
C1773       C  0.18601844  0.81170790  0.98311640     0.36500
C1774       C  0.32686903  0.82694665  0.95738058     0.36400
N1775       N  0.15672590  0.80909934  0.98768163    -0.43800
N1776       N  0.35358046  0.82959102  0.95096368    -0.43800
C1777       C  0.16704265  0.64329532  0.96149568    -0.00200
C1778       C  0.15950152  0.62112048  0.97347351    -0.12100
C1779       C  0.16285009  0.58620416  0.97407541     0.02000
C1780       C  0.16981497  0.56998884  0.96205956    -0.00300
C1781       C  0.18294878  0.59524342  0.95060632    -0.12000
C1782       C  0.18234365  0.63161877  0.95029903     0.01900
H1783       H  0.14971729  0.63024425  0.98233781     0.14900
H1784       H  0.19378339  0.58672047  0.94175856     0.14900
C1785       C  0.19861956  0.65654563  0.93841329     0.36500
C1786       C  0.16036442  0.56880575  0.98727272     0.36400
N1787       N  0.21193407  0.67607526  0.92880764    -0.43800
N1788       N  0.15863385  0.55519292  0.99789554    -0.43800
C1789       C  0.93485163  0.50230152  0.01740648    -0.00200
C1790       C  0.90739981  0.47119233  0.00876105    -0.12100
C1791       C  0.90931683  0.43577571  0.00687001     0.02000
C1792       C  0.93772260  0.42937463  0.01432176    -0.00300
C1793       C  0.96579607  0.46088872  0.02260624    -0.12000
C1794       C  0.96575957  0.49724306  0.02376074     0.01900
H1795       H  0.88596464  0.47529459  0.00267226     0.14900
H1796       H  0.98862464  0.45778370  0.02821639     0.14900
C1797       C  0.99964430  0.52957030  0.03094365     0.36500
C1798       C  0.88423887  0.40859590  0.99626575     0.36400
N1799       N  0.02696775  0.55549192  0.03660212    -0.43800
N1800       N  0.86430203  0.38696755  0.98770624    -0.43800
C1801       C  0.01812014  0.64359825  0.00312342    -0.00200
C1802       C  0.05393015  0.64159382  0.00515039    -0.12100
C1803       C  0.08859422  0.66368239  0.99710131     0.02000
C1804       C  0.08728287  0.68716846  0.98627549    -0.00300
C1805       C  0.05480355  0.69560536  0.98639597    -0.12000
C1806       C  0.02021981  0.67370797  0.99449803     0.01900
H1807       H  0.05438581  0.62160779  0.01285830     0.14900
H1808       H  0.05519766  0.71800189  0.97959834     0.14900
C1809       C  0.98720741  0.68203223  0.99340444     0.36500
C1810       C  0.12496861  0.66319606  0.00097167     0.36400
N1811       N  0.96134564  0.68966706  0.99263147    -0.43800
N1812       N  0.15388082  0.66322508  0.00480809    -0.43800
C1813       C  0.48161369  0.28351303  0.01385488    -0.00200
C1814       C  0.50627473  0.27980121  0.02389432    -0.12100
C1815       C  0.50868177  0.24468860  0.02564857     0.02000
C1816       C  0.48634074  0.21073914  0.01717201    -0.00300
C1817       C  0.46094818  0.21334347  0.00725952    -0.12000
C1818       C  0.45830088  0.24884761  0.00548488     0.01900
H1819       H  0.52363953  0.30481387  0.03076442     0.14900
H1820       H  0.44344580  0.18759564  0.00068760     0.14900
C1821       C  0.43070966  0.24723438  0.99511299     0.36500
C1822       C  0.53378086  0.24431900  0.03664298     0.36400
N1823       N  0.40817988  0.24445039  0.98664925    -0.43800
N1824       N  0.55422778  0.24449795  0.04541833    -0.43800
C1825       C  0.30274231  0.47233248  0.96358315    -0.00200
C1826       C  0.27403640  0.45448078  0.97414672    -0.12100
C1827       C  0.23804654  0.45719411  0.97450374     0.02000
C1828       C  0.22980260  0.47770311  0.96416903    -0.00300
C1829       C  0.25772618  0.49481637  0.95360255    -0.12000
C1830       C  0.29352356  0.49265293  0.95321182     0.01900
H1831       H  0.27970307  0.43909710  0.98231766     0.14900
H1832       H  0.25174164  0.51070222  0.94561583     0.14900
C1833       C  0.32048239  0.51238292  0.94193158     0.36500
C1834       C  0.21079382  0.44022658  0.98584625     0.36400
N1835       N  0.34185993  0.52809362  0.93285345    -0.43800
N1836       N  0.18895836  0.42683667  0.99496529    -0.43800
C1837       C  0.40917963  0.43070929  0.98076224    -0.00200
C1838       C  0.38322371  0.39136512  0.98563560    -0.12100
C1839       C  0.39826524  0.37046030  0.99338903     0.02000
C1840       C  0.43995041  0.38921401  0.99690079    -0.00300
C1841       C  0.46573285  0.42826683  0.99217139    -0.12000
C1842       C  0.45133311  0.44867785  0.98404699     0.01900
H1843       H  0.35112382  0.37634800  0.98308505     0.14900
H1844       H  0.49787171  0.44291587  0.99472369     0.14900
C1845       C  0.48169572  0.48792632  0.97939319     0.36500
C1846       C  0.37021494  0.33005122  0.99779911     0.36400
N1847       N  0.50778422  0.51866518  0.97570804    -0.43800
N1848       N  0.34777226  0.29752178  0.00126416    -0.43800
C1849       C  0.60944000  0.78128940  0.96976209    -0.00200
C1850       C  0.57824004  0.78052385  0.97770406    -0.12100
C1851       C  0.57285567  0.81420529  0.97878643     0.02000
C1852       C  0.59778747  0.84980111  0.97128662    -0.00300
C1853       C  0.63237587  0.85242566  0.96503750    -0.12000
C1854       C  0.63928026  0.81952449  0.96476194     0.01900
H1855       H  0.55802566  0.75361678  0.98332111     0.14900
H1856       H  0.65443694  0.88010655  0.96026324     0.14900
C1857       C  0.67809607  0.82669236  0.95978218     0.36500
C1858       C  0.54330526  0.81187148  0.98847001     0.36400
N1859       N  0.70940209  0.83275995  0.95588200    -0.43800
N1860       N  0.51986978  0.80976344  0.99638769    -0.43800
C1861       C  0.52962923  0.62963473  0.96292755    -0.00200
C1862       C  0.51073351  0.61008725  0.97501083    -0.12100
C1863       C  0.47325003  0.57416202  0.97475079     0.02000
C1864       C  0.45526994  0.55618986  0.96222208    -0.00300
C1865       C  0.47346080  0.57630838  0.95013932    -0.12000
C1866       C  0.50974404  0.61353598  0.95044024     0.01900
H1867       H  0.52498789  0.62332196  0.98466459     0.14900
H1868       H  0.45861309  0.56352901  0.94051712     0.14900
C1869       C  0.52439568  0.63596605  0.93798689     0.36500
C1870       C  0.45400839  0.55585105  0.98743683     0.36400
N1871       N  0.53577719  0.65414050  0.92802383    -0.43800
N1872       N  0.43845782  0.54100750  0.99756838    -0.43800
C1873       C  0.79494270  0.59453650  0.01393097    -0.00200
C1874       C  0.81927811  0.60542615  0.00211769    -0.12100
C1875       C  0.85495788  0.60233750  0.00145868     0.02000
C1876       C  0.86846484  0.59007740  0.01290660    -0.00300
C1877       C  0.84430888  0.57873742  0.02456697    -0.12000
C1878       C  0.80766371  0.57952237  0.02505101     0.01900
H1879       H  0.80970963  0.61444093  0.99307673     0.14900
H1880       H  0.85345862  0.56766251  0.03325262     0.14900
C1881       C  0.78321266  0.56329829  0.03708703     0.36500
C1882       C  0.87556977  0.60902492  0.98864748     0.36400
N1883       N  0.76373259  0.55029672  0.04674872    -0.43800
N1884       N  0.89168973  0.61368746  0.97831315    -0.43800
C1885       C  0.64042926  0.51208265  0.01533940    -0.00200
C1886       C  0.61170976  0.50455045  0.02551055    -0.12100
C1887       C  0.57460439  0.46789397  0.02607160     0.02000
C1888       C  0.56497590  0.43757323  0.01614697    -0.00300
C1889       C  0.59356275  0.44550669  0.00582644    -0.12000
C1890       C  0.63067473  0.48214950  0.00530297     0.01900
H1891       H  0.61871197  0.52707271  0.03330022     0.14900
H1892       H  0.58659137  0.42318895  0.99795513     0.14900
C1893       C  0.65737878  0.48894736  0.99398355     0.36500
C1894       C  0.54825828  0.46197612  0.03739738     0.36400
N1895       N  0.67879141  0.49452240  0.98490039    -0.43800
N1896       N  0.52784191  0.45827379  0.04660133    -0.43800
C1897       C  0.69389464  0.64167345  0.99675197    -0.00200
C1898       C  0.67328370  0.65876059  0.00345143    -0.12100
C1899       C  0.65537511  0.67784439  0.99632113     0.02000
C1900       C  0.65800799  0.68082811  0.98202332    -0.00300
C1901       C  0.67996439  0.66526510  0.97532691    -0.12000
C1902       C  0.69799073  0.64618514  0.98247154     0.01900
H1903       H  0.67058567  0.65685168  0.01440323     0.14900
H1904       H  0.68271374  0.66762378  0.96437227     0.14900
C1905       C  0.71920255  0.63046436  0.97472607     0.36500
C1906       C  0.63243699  0.69189087  0.00394775     0.36400
N1907       N  0.73651434  0.61835261  0.96842046    -0.43800
N1908       N  0.61406985  0.70309717  0.01010582    -0.43800
C1909       C  0.73610648  0.72404795  0.24551894    -0.00200
C1910       C  0.72033024  0.74900563  0.24901225    -0.12100
C1911       C  0.73303909  0.77260401  0.26082770     0.02000
C1912       C  0.76304741  0.77226456  0.26941733    -0.00300
C1913       C  0.77930236  0.74772533  0.26577184    -0.12000
C1914       C  0.76622810  0.72380588  0.25400501     0.01900
H1915       H  0.69707128  0.74931169  0.24265269     0.14900
H1916       H  0.80277116  0.74755867  0.27204748     0.14900
C1917       C  0.78531552  0.70036864  0.25068720     0.36500
C1918       C  0.71276905  0.79489900  0.26415504     0.36400
N1919       N  0.80062791  0.68164056  0.24798358    -0.43800
N1920       N  0.69653923  0.81283871  0.26674550    -0.43800
C1921       C  0.70101300  0.66933774  0.06549147    -0.00200
C1922       C  0.72543530  0.69265886  0.05463983    -0.12100
C1923       C  0.72842204  0.67477325  0.04264459     0.02000
C1924       C  0.70614086  0.63260226  0.04111847    -0.00300
C1925       C  0.67977850  0.60921052  0.05152127    -0.12000
C1926       C  0.67719065  0.62708731  0.06369085     0.01900
H1927       H  0.74376568  0.72508670  0.05571036     0.14900
H1928       H  0.66288561  0.57672991  0.05044833     0.14900
C1929       C  0.65197815  0.60103504  0.07439900     0.36500
C1930       C  0.75578327  0.70029405  0.03221066     0.36400
N1931       N  0.63184399  0.57996748  0.08297182    -0.43800
N1932       N  0.77785671  0.72071368  0.02388247    -0.43800
C1933       C  0.68434907  0.69788604  0.14265249    -0.00200
C1934       C  0.70125009  0.72953746  0.15216057    -0.12100
C1935       C  0.69947227  0.72210660  0.16611796     0.02000
C1936       C  0.68041405  0.68205346  0.17090229    -0.00300
C1937       C  0.66054863  0.65042904  0.16146441    -0.12000
C1938       C  0.66213325  0.65794927  0.14746924     0.01900
H1939       H  0.71773690  0.76045397  0.14865275     0.14900
H1940       H  0.64504977  0.61950668  0.16497471     0.14900
C1941       C  0.64280138  0.62398064  0.13834142     0.36500
C1942       C  0.71994282  0.75630595  0.17511615     0.36400
N1943       N  0.62718834  0.59666605  0.13105811    -0.43800
N1944       N  0.73646693  0.78378968  0.18228980    -0.43800
C1945       C  0.02763404  0.35853073  0.06465652    -0.00200
C1946       C  0.00689838  0.38032746  0.06408733    -0.12100
C1947       C  0.99015645  0.38404915  0.05184013     0.02000
C1948       C  0.99373566  0.36529887  0.04005658    -0.00300
C1949       C  0.01727034  0.34644070  0.04041153    -0.12000
C1950       C  0.03544487  0.34423233  0.05247573     0.01900
H1951       H  0.00147352  0.39221610  0.07333845     0.14900
H1952       H  0.02077454  0.33274692  0.03125617     0.14900
C1953       C  0.06210385  0.32742364  0.05206861     0.36500
C1954       C  0.96701380  0.40460339  0.05186708     0.36400
N1955       N  0.08400581  0.31459576  0.05174908    -0.43800
N1956       N  0.94860740  0.42125398  0.05206995    -0.43800
C1957       C  0.99928528  0.32959971  0.24119875    -0.00200
C1958       C  0.03804338  0.34725927  0.24706989    -0.12100
C1959       C  0.04487913  0.33223486  0.25913417     0.02000
C1960       C  0.01258766  0.29781642  0.26550369    -0.00300
C1961       C  0.97374802  0.28014420  0.25937075    -0.12000
C1962       C  0.96690593  0.29566409  0.24744728     0.01900
H1963       H  0.06299667  0.37352207  0.24236400     0.14900
H1964       H  0.94785806  0.25445876  0.26373547     0.14900
C1965       C  0.92635391  0.27522877  0.24167178     0.36500
C1966       C  0.08534742  0.35371272  0.26491132     0.36400
N1967       N  0.89388423  0.25881275  0.23707222    -0.43800
N1968       N  0.11768491  0.37113676  0.26957563    -0.43800
C1969       C  0.02810328  0.37484220  0.16732252    -0.00200
C1970       C  0.01732869  0.39121063  0.15639428    -0.12100
C1971       C  0.02513390  0.38521849  0.14297810     0.02000
C1972       C  0.04362118  0.36176355  0.14024983    -0.00300
C1973       C  0.05698257  0.34784209  0.15121687    -0.12000
C1974       C  0.04980751  0.35444384  0.16464427     0.01900
H1975       H  0.00145841  0.40770332  0.15829410     0.14900
H1976       H  0.07201998  0.33055578  0.14931488     0.14900
C1977       C  0.06353342  0.33827882  0.17535348     0.36500
C1978       C  0.01213353  0.40211163  0.13229534     0.36400
N1979       N  0.07467680  0.32544716  0.18393070    -0.43800
N1980       N  0.00179770  0.41576980  0.12374799    -0.43800
C1981       C  0.41097058  0.36987804  0.06771161    -0.00200
C1982       C  0.44587902  0.36594484  0.06794833    -0.12100
C1983       C  0.46528532  0.36581175  0.05591451     0.02000
C1984       C  0.45046356  0.37071389  0.04331658    -0.00300
C1985       C  0.41814619  0.37859769  0.04311759    -0.12000
C1986       C  0.39806479  0.37785271  0.05515399     0.01900
H1987       H  0.45656393  0.36030904  0.07747110     0.14900
H1988       H  0.40697411  0.38285116  0.03346474     0.14900
C1989       C  0.36346118  0.38386275  0.05420922     0.36500
C1990       C  0.49969661  0.35940120  0.05669764     0.36400
N1991       N  0.33565487  0.38857108  0.05341525    -0.43800
N1992       N  0.52716698  0.35411215  0.05726267    -0.43800
C1993       C  0.15949748  0.33547469  0.09626608    -0.00200
C1994       C  0.19227252  0.36681353  0.10330395    -0.12100
C1995       C  0.23064189  0.36980136  0.10350575     0.02000
C1996       C  0.23678478  0.34126886  0.09636249    -0.00300
C1997       C  0.20474721  0.31186343  0.08849473    -0.12000
C1998       C  0.16640872  0.30869565  0.08838683     0.01900
H1999       H  0.18740251  0.38781475  0.10927263     0.14900
H2000       H  0.20924518  0.29033526  0.08269851     0.14900
C2001       C  0.13479048  0.27744009  0.08016883     0.36500
C2002       C  0.26201070  0.40069881  0.11187832     0.36400
N2003       N  0.10954720  0.25235094  0.07357644    -0.43800
N2004       N  0.28699666  0.42538956  0.11865506    -0.43800
C2005       C  0.34374248  0.33335351  0.24540806    -0.00200
C2006       C  0.36356200  0.34159374  0.25807126    -0.12100
C2007       C  0.34200113  0.32362220  0.26995391     0.02000
C2008       C  0.29980023  0.29667474  0.26931259    -0.00300
C2009       C  0.27986043  0.28831412  0.25673348    -0.12000
C2010       C  0.30117344  0.30700015  0.24485320     0.01900
H2011       H  0.39625440  0.36135156  0.25865481     0.14900
H2012       H  0.24771008  0.26621783  0.25614380     0.14900
C2013       C  0.27893111  0.29666709  0.23219104     0.36500
C2014       C  0.36415354  0.33148209  0.28258424     0.36400
N2015       N  0.26104266  0.28845444  0.22205208    -0.43800
N2016       N  0.38187105  0.33760773  0.29270687    -0.43800
C2017       C  0.51176008  0.48072369  0.21827274    -0.00200
C2018       C  0.54672383  0.48255647  0.22388916    -0.12100
C2019       C  0.58384902  0.51856850  0.22416006     0.02000
C2020       C  0.58644656  0.55404891  0.21887726    -0.00300
C2021       C  0.55085473  0.55297528  0.21423320    -0.12000
C2022       C  0.51371434  0.51669088  0.21377415     0.01900
H2023       H  0.54550389  0.45534448  0.22762379     0.14900
H2024       H  0.55250578  0.58002875  0.21014372     0.14900
C2025       C  0.47913827  0.51692738  0.20768149     0.36500
C2026       C  0.61892030  0.51776358  0.22956210     0.36400
N2027       N  0.45146821  0.51703624  0.20272763    -0.43800
N2028       N  0.64704561  0.51704358  0.23381415    -0.43800
C2029       C  0.36574093  0.36427357  0.14225674    -0.00200
C2030       C  0.40687472  0.38539056  0.14612521    -0.12100
C2031       C  0.41828696  0.39137820  0.15985879     0.02000
C2032       C  0.38811885  0.37615972  0.17006489    -0.00300
C2033       C  0.34704079  0.35761991  0.16615385    -0.12000
C2034       C  0.33566431  0.35158673  0.15243117     0.01900
H2035       H  0.43026443  0.39590667  0.13840813     0.14900
H2036       H  0.32355468  0.34643291  0.17384525     0.14900
C2037       C  0.29290619  0.33276430  0.14911341     0.36500
C2038       C  0.46115997  0.41338299  0.16311694     0.36400
N2039       N  0.25861258  0.31796252  0.14652504    -0.43800
N2040       N  0.49556709  0.43124463  0.16564917    -0.43800
C2041       C  0.98668810  0.66893831  0.06984028    -0.00200
C2042       C  0.00578934  0.68759260  0.05768566    -0.12100
C2043       C  0.99461253  0.66683878  0.04531749     0.02000
C2044       C  0.96300023  0.62614849  0.04481847    -0.00300
C2045       C  0.94319718  0.60767853  0.05701610    -0.12000
C2046       C  0.95467554  0.62857222  0.06943007     0.01900
H2047       H  0.03030953  0.71866144  0.05786764     0.14900
H2048       H  0.91837196  0.57679180  0.05685271     0.14900
C2049       C  0.93195506  0.60839771  0.08143612     0.36500
C2050       C  0.01789234  0.68841018  0.03361051     0.36400
N2051       N  0.91354877  0.59224136  0.09103174    -0.43800
N2052       N  0.03754863  0.70746707  0.02461517    -0.43800
C2053       C  0.91144588  0.73784121  0.10856697    -0.00200
C2054       C  0.87633075  0.70074591  0.11121416    -0.12100
C2055       C  0.83776072  0.69715592  0.11134016     0.02000
C2056       C  0.83375607  0.73122360  0.10862004    -0.00300
C2057       C  0.86904795  0.76863195  0.10659971    -0.12000
C2058       C  0.90758113  0.77231623  0.10660665     0.01900
H2059       H  0.87883271  0.67412239  0.11298137     0.14900
H2060       H  0.86662600  0.79526777  0.10475185     0.14900
C2061       C  0.94226639  0.81195763  0.10458004     0.36500
C2062       C  0.80319540  0.65815213  0.11428827     0.36400
N2063       N  0.96983993  0.84388451  0.10300182    -0.43800
N2064       N  0.77570636  0.62682923  0.11673695    -0.43800
C2065       C  0.01338691  0.75014060  0.27382794    -0.00200
C2066       C  0.04430932  0.77083827  0.26428695    -0.12100
C2067       C  0.04396658  0.75289494  0.25179301     0.02000
C2068       C  0.01254103  0.71320318  0.24886251    -0.00300
C2069       C  0.98335022  0.69188159  0.25890335    -0.12000
C2070       C  0.98334188  0.70994392  0.27119433     0.01900
H2071       H  0.06746110  0.80180062  0.26628969     0.14900
H2072       H  0.95929453  0.66124283  0.25699185     0.14900
C2073       C  0.95144334  0.68683538  0.28082187     0.36500
C2074       C  0.07494911  0.77661136  0.24200104     0.36400
N2075       N  0.92574654  0.66849054  0.28849957    -0.43800
N2076       N  0.09971514  0.79568409  0.23412986    -0.43800
C2077       C  0.87949997  0.65537811  0.20431283    -0.00200
C2078       C  0.84341423  0.61807175  0.20519200    -0.12100
C2079       C  0.80535438  0.61560906  0.20510568     0.02000
C2080       C  0.80288110  0.65112594  0.20392547    -0.00300
C2081       C  0.83886969  0.68810170  0.20220064    -0.12000
C2082       C  0.87690987  0.69061635  0.20245676     0.01900
H2083       H  0.84486355  0.59069709  0.20646128     0.14900
H2084       H  0.83751476  0.71558960  0.20115578     0.14900
C2085       C  0.91253742  0.73000557  0.20118513     0.36500
C2086       C  0.76976904  0.57631178  0.20666681     0.36400
N2087       N  0.94104760  0.76161458  0.20022311    -0.43800
N2088       N  0.74142811  0.54473570  0.20797761    -0.43800
C2089       C  0.99996013  0.55797113  0.21594093    -0.00200
C2090       C  0.96797721  0.52420554  0.22223638    -0.12100
C2091       C  0.96461187  0.48633871  0.22118201     0.02000
C2092       C  0.99388332  0.48187572  0.21378234    -0.00300
C2093       C  0.02748392  0.51603005  0.20833675    -0.12000
C2094       C  0.03063553  0.55393519  0.20925025     0.01900
H2095       H  0.94465006  0.52710263  0.22761146     0.14900
H2096       H  0.05012200  0.51273456  0.20266566     0.14900
C2097       C  0.06378743  0.58720328  0.20228836     0.36500
C2098       C  0.93072899  0.45262499  0.22773207     0.36400
N2099       N  0.09025989  0.61378433  0.19664484    -0.43800
N2100       N  0.90358883  0.42567379  0.23299851    -0.43800
C2101       C  0.03916778  0.71653689  0.14445010    -0.00200
C2102       C  0.02579397  0.67637458  0.14790654    -0.12100
C2103       C  0.02074758  0.66419824  0.16148106     0.02000
C2104       C  0.03013382  0.69277886  0.17197854    -0.00300
C2105       C  0.04713196  0.73355945  0.16854291    -0.12000
C2106       C  0.05134323  0.74560639  0.15493452     0.01900
H2107       H  0.01676006  0.65384395  0.13997120     0.14900
H2108       H  0.05487967  0.75585241  0.17648570     0.14900
C2109       C  0.06732408  0.78782452  0.15210138     0.36500
C2110       C  0.00442531  0.62188444  0.16424300     0.36400
N2111       N  0.08014106  0.82171745  0.14994015    -0.43800
N2112       N  0.99110729  0.58791833  0.16639729    -0.43800
C2113       C  0.33059211  0.02725296  0.24420883    -0.00200
C2114       C  0.28928180  0.01632820  0.24355909    -0.12100
C2115       C  0.26709833  0.01135168  0.25543730     0.02000
C2116       C  0.28619424  0.01697070  0.26814850    -0.00300
C2117       C  0.32595384  0.02374562  0.26884506    -0.12000
C2118       C  0.34839745  0.02914050  0.25702776     0.01900
H2119       H  0.27496252  0.01406930  0.23380317     0.14900
H2120       H  0.34026107  0.02712555  0.27864453     0.14900
C2121       C  0.38992944  0.03780781  0.25841631     0.36500
C2122       C  0.22517293  0.00162686  0.25442360     0.36400
N2123       N  0.42321931  0.04479790  0.25955869    -0.43800
N2124       N  0.19142046  0.99337906  0.25368177    -0.43800
C2125       C  0.40371427  0.18274322  0.20735920    -0.00200
C2126       C  0.44169043  0.21749477  0.20525899    -0.12100
C2127       C  0.44564867  0.25581954  0.20517947     0.02000
C2128       C  0.41106143  0.25986241  0.20732066    -0.00300
C2129       C  0.37303240  0.22512597  0.20908400    -0.12000
C2130       C  0.36898126  0.18688462  0.20908951     0.01900
H2131       H  0.46855167  0.21482855  0.20370875     0.14900
H2132       H  0.34617283  0.22778497  0.21067968     0.14900
C2133       C  0.32868814  0.15279867  0.21095422     0.36500
C2134       C  0.48531990  0.29010920  0.20258110     0.36400
N2135       N  0.29626312  0.12567780  0.21241534    -0.43800
N2136       N  0.51712420  0.31748231  0.20043477    -0.43800
C2137       C  0.38277998  0.06082203  0.06786703    -0.00200
C2138       C  0.42210565  0.09289833  0.07032410    -0.12100
C2139       C  0.44882464  0.11323793  0.05969136     0.02000
C2140       C  0.43686867  0.10109344  0.04608451    -0.00300
C2141       C  0.39721232  0.06913157  0.04356442    -0.12000
C2142       C  0.37014888  0.04906216  0.05430528     0.01900
H2143       H  0.43177013  0.10296796  0.08066467     0.14900
H2144       H  0.38775632  0.05898095  0.03322688     0.14900
C2145       C  0.33042116  0.01540831  0.05120188     0.36500
C2146       C  0.48802350  0.14713176  0.06316626     0.36400
N2147       N  0.29865235  0.98826189  0.04873967    -0.43800
N2148       N  0.51948602  0.17395539  0.06612120    -0.43800
C2149       C  0.20425483  0.91713594  0.09739057    -0.00200
C2150       C  0.20517269  0.88088694  0.09718299    -0.12100
C2151       C  0.16909275  0.84343872  0.09738460     0.02000
C2152       C  0.13101896  0.84184616  0.09779363    -0.00300
C2153       C  0.13024159  0.87805819  0.09732393    -0.12000
C2154       C  0.16601143  0.91528591  0.09720148     0.01900
H2155       H  0.23418195  0.88171911  0.09719520     0.14900
H2156       H  0.10136523  0.87751567  0.09748349     0.14900
C2157       C  0.16190720  0.95080848  0.09736677     0.36500
C2158       C  0.17233844  0.80746824  0.09742710     0.36400
N2159       N  0.15837359  0.97911359  0.09757096    -0.43800
N2160       N  0.17509270  0.77871390  0.09744140    -0.43800
C2161       C  0.32257203  0.21380867  0.10288487    -0.00200
C2162       C  0.35636812  0.21043641  0.10683227    -0.12100
C2163       C  0.35454224  0.17314191  0.10727909     0.02000
C2164       C  0.31808868  0.13776467  0.10366669    -0.00300
C2165       C  0.28405329  0.14097622  0.09987688    -0.12000
C2166       C  0.28590399  0.17840688  0.09944814     0.01900
H2167       H  0.38466942  0.23719680  0.10958747     0.14900
H2168       H  0.25586390  0.11415284  0.09708690     0.14900
C2169       C  0.24977312  0.17922335  0.09527968     0.36500
C2170       C  0.39080147  0.17258381  0.11148702     0.36400
N2171       N  0.22063882  0.17951762  0.09192143    -0.43800
N2172       N  0.41993081  0.17231601  0.11486953    -0.43800
C2173       C  0.36503560  0.03298178  0.16975516    -0.00200
C2174       C  0.32346524  0.01264532  0.16644366    -0.12100
C2175       C  0.31050444  0.00616705  0.15286377     0.02000
C2176       C  0.33946267  0.01923207  0.14229223    -0.00300
C2177       C  0.38086530  0.03685909  0.14566444    -0.12000
C2178       C  0.39385232  0.04426944  0.15921939     0.01900
H2179       H  0.30107362  0.00365859  0.17445256     0.14900
H2180       H  0.40338268  0.04688731  0.13766489     0.14900
C2181       C  0.43700009  0.06414189  0.16201796     0.36500
C2182       C  0.26736092  0.98663291  0.15009650     0.36400
N2183       N  0.47154061  0.08018283  0.16432357    -0.43800
N2184       N  0.23277652  0.97104704  0.14790528    -0.43800
C2185       C  0.72311610  0.05750018  0.07294972    -0.00200
C2186       C  0.71569368  0.08993399  0.07314810    -0.12100
C2187       C  0.71482032  0.10888685  0.06110705     0.02000
C2188       C  0.71951724  0.09418905  0.04853928    -0.00300
C2189       C  0.72632350  0.06149989  0.04828738    -0.12000
C2190       C  0.72808490  0.04300636  0.06031295     0.01900
H2191       H  0.71283114  0.10198950  0.08277642     0.14900
H2192       H  0.73154893  0.05117754  0.03865436     0.14900
C2193       C  0.73562854  0.00967934  0.05934060     0.36500
C2194       C  0.71060319  0.14422615  0.06196258     0.36400
N2195       N  0.74179415  0.98305987  0.05851810    -0.43800
N2196       N  0.70719930  0.17251997  0.06279985    -0.43800
C2197       C  0.86415190  0.13405408  0.10920855    -0.00200
C2198       C  0.86355802  0.17023430  0.11075212    -0.12100
C2199       C  0.89899261  0.20771300  0.10940796     0.02000
C2200       C  0.93643272  0.20973900  0.10640920    -0.00300
C2201       C  0.93718438  0.17360522  0.10503742    -0.12000
C2202       C  0.90166539  0.13606893  0.10634103     0.01900
H2203       H  0.83514851  0.16936563  0.11299278     0.14900
H2204       H  0.96560734  0.17460056  0.10271156     0.14900
C2205       C  0.90474108  0.10035925  0.10432197     0.36500
C2206       C  0.89583729  0.24338664  0.11145643     0.36400
N2207       N  0.90727034  0.07178222  0.10266872    -0.43800
N2208       N  0.89313310  0.27185490  0.11314293    -0.43800
C2209       C  0.72080680  0.83325186  0.09908562    -0.00200
C2210       C  0.75663070  0.86695027  0.09447835    -0.12100
C2211       C  0.76295779  0.90590924  0.09596478     0.02000
C2212       C  0.73285990  0.91195615  0.10212736    -0.00300
C2213       C  0.69589389  0.87818951  0.10595767    -0.12000
C2214       C  0.68972064  0.83903960  0.10458352     0.01900
H2215       H  0.78054887  0.86300780  0.09003283     0.14900
H2216       H  0.67241350  0.88245019  0.11059346     0.14900
C2217       C  0.65240226  0.80589363  0.10970037     0.36500
C2218       C  0.80075049  0.93900314  0.09106278     0.36400
N2219       N  0.62250439  0.77941422  0.11386021    -0.43800
N2220       N  0.83104514  0.96548791  0.08714437    -0.43800
C2221       C  0.72847812  0.06115124  0.25110608    -0.00200
C2222       C  0.74266344  0.09266728  0.26062198    -0.12100
C2223       C  0.76173489  0.09155286  0.27263068     0.02000
C2224       C  0.76743186  0.05849927  0.27532917    -0.00300
C2225       C  0.75130548  0.02588146  0.26626780    -0.12000
C2226       C  0.73194686  0.02689485  0.25421224     0.01900
H2227       H  0.73929644  0.11869650  0.25863396     0.14900
H2228       H  0.75483315  0.00003124  0.26843657     0.14900
C2229       C  0.71708168  0.99290262  0.24511092     0.36500
C2230       C  0.77339626  0.12387431  0.28230379     0.36400
N2231       N  0.70509067  0.96565648  0.23780118    -0.43800
N2232       N  0.78243358  0.14962787  0.29007957    -0.43800
C2233       C  0.79877305  0.18893312  0.20367950    -0.00200
C2234       C  0.79639958  0.22432483  0.20298144    -0.12100
C2235       C  0.83123952  0.26189526  0.20111411     0.02000
C2236       C  0.86964734  0.26456061  0.19992633    -0.00300
C2237       C  0.87161425  0.22890733  0.19977970    -0.12000
C2238       C  0.83683224  0.19137897  0.20162138     0.01900
H2239       H  0.76730215  0.22287857  0.20426482     0.14900
H2240       H  0.90075734  0.23031442  0.19870858     0.14900
C2241       C  0.84164688  0.15627564  0.20153112     0.36500
C2242       C  0.82640975  0.29695708  0.20077545     0.36400
N2243       N  0.84575647  0.12830437  0.20141739    -0.43800
N2244       N  0.82223835  0.32488187  0.20049564    -0.43800
C2245       C  0.50480361  0.06867383  0.21603556    -0.00200
C2246       C  0.54030281  0.10606035  0.21789459    -0.12100
C2247       C  0.57862285  0.10929887  0.21855637     0.02000
C2248       C  0.58223576  0.07437064  0.21743203    -0.00300
C2249       C  0.54656446  0.03669669  0.21621369    -0.12000
C2250       C  0.50810565  0.03355671  0.21549191     0.01900
H2251       H  0.53838031  0.13333767  0.21845348     0.14900
H2252       H  0.54870158  0.00957306  0.21548060     0.14900
C2253       C  0.47279756  0.99398303  0.21413605     0.36500
C2254       C  0.61348308  0.14918671  0.22007708     0.36400
N2255       N  0.44448936  0.96224174  0.21306871    -0.43800
N2256       N  0.64129717  0.18121506  0.22125292    -0.43800
C2257       C  0.69498630  0.03340288  0.17591470    -0.00200
C2258       C  0.67396161  0.03899356  0.16513722    -0.12100
C2259       C  0.68122999  0.03312422  0.15164223     0.02000
C2260       C  0.71082307  0.02210081  0.14864287    -0.00300
C2261       C  0.72992822  0.01397072  0.15946870    -0.12000
C2262       C  0.72205101  0.01910853  0.17299677     0.01900
H2263       H  0.65260183  0.04933971  0.16722152     0.14900
H2264       H  0.75207754  0.00465191  0.15736586     0.14900
C2265       C  0.74380681  0.01142267  0.18355509     0.36500
C2266       C  0.65906664  0.04049904  0.14115718     0.36400
N2267       N  0.76116282  0.00510405  0.19200248    -0.43800
N2268       N  0.64108034  0.04629523  0.13280236    -0.43800
C2269       C  0.30875597  0.98895633  0.73773569    -0.00200
C2270       C  0.30214299  0.96326073  0.72669222    -0.12100
C2271       C  0.28315776  0.96547390  0.71478443     0.02000
C2272       C  0.27123185  0.99507363  0.71335670    -0.00300
C2273       C  0.27552018  0.01902608  0.72482338    -0.12000
C2274       C  0.29386912  0.01616744  0.73686706     0.01900
H2275       H  0.31196288  0.94112338  0.72730680     0.14900
H2276       H  0.26519181  0.04059427  0.72463431     0.14900
C2277       C  0.29719933  0.04199677  0.74805659     0.36500
C2278       C  0.27766982  0.93760333  0.70399023     0.36400
N2279       N  0.29954901  0.06273000  0.75697084    -0.43800
N2280       N  0.27336862  0.91540967  0.69532447    -0.43800
C2281       C  0.34579481  0.00187459  0.91186742    -0.00200
C2282       C  0.38487819  0.01370287  0.91678834    -0.12100
C2283       C  0.39065520  0.99847101  0.92904702     0.02000
C2284       C  0.35667957  0.96868554  0.93639801    -0.00300
C2285       C  0.31759291  0.95873941  0.93162937    -0.12000
C2286       C  0.31188208  0.97434616  0.91954610     0.01900
H2287       H  0.41115434  0.03584268  0.91120212     0.14900
H2288       H  0.29075767  0.93955327  0.93748438     0.14900
C2289       C  0.27050434  0.96085772  0.91527544     0.36500
C2290       C  0.43195314  0.01563434  0.93386867     0.36400
N2291       N  0.23737719  0.95003468  0.91186400    -0.43800
N2292       N  0.46548990  0.03000321  0.93737857    -0.43800
C2293       C  0.37122440  0.04772645  0.83646968    -0.00200
C2294       C  0.39181982  0.02642643  0.83401290    -0.12100
C2295       C  0.39587159  0.01542432  0.82082513     0.02000
C2296       C  0.37940831  0.02604002  0.80976012    -0.00300
C2297       C  0.36290841  0.05111225  0.81202755    -0.12000
C2298       C  0.35858277  0.06196845  0.82523528     0.01900
H2299       H  0.40271180  0.01619372  0.84245795     0.14900
H2300       H  0.35090747  0.06008373  0.80354867     0.14900
C2301       C  0.33943741  0.08618255  0.82687957     0.36500
C2302       C  0.41625303  0.99244466  0.81896255     0.36400
N2303       N  0.32404138  0.10554991  0.82814608    -0.43800
N2304       N  0.43263546  0.97409381  0.81743769    -0.43800
C2305       C  0.32596998  0.32212515  0.72994134    -0.00200
C2306       C  0.30388398  0.27975749  0.73075852    -0.12100
C2307       C  0.28301925  0.25587660  0.71940970     0.02000
C2308       C  0.28408601  0.27418897  0.70691557    -0.00300
C2309       C  0.30764771  0.31616376  0.70585974    -0.12000
C2310       C  0.32851171  0.34014156  0.71712335     0.01900
H2311       H  0.30149545  0.26521635  0.74041659     0.14900
H2312       H  0.30846253  0.33041648  0.69626160     0.14900
C2313       C  0.35106523  0.38322187  0.71519778     0.36500
C2314       C  0.25935364  0.21277147  0.72095661     0.36400
N2315       N  0.36902448  0.41773567  0.71361578    -0.43800
N2316       N  0.24055212  0.17820103  0.72225970    -0.43800
C2317       C  0.39397115  0.44464122  0.93438159    -0.00200
C2318       C  0.39234519  0.46371116  0.92243950    -0.12100
C2319       C  0.39275058  0.44788571  0.90965308     0.02000
C2320       C  0.39419537  0.41175942  0.90869573    -0.00300
C2321       C  0.39960115  0.39494172  0.92069072    -0.12000
C2322       C  0.39952378  0.41104808  0.93345668     0.01900
H2323       H  0.38880692  0.49005613  0.92313681     0.14900
H2324       H  0.40136819  0.36758143  0.92018128     0.14900
C2325       C  0.40176576  0.39049818  0.94541335     0.36500
C2326       C  0.38902554  0.46806803  0.89783273     0.36400
N2327       N  0.40356458  0.37362424  0.95488828    -0.43800
N2328       N  0.38608275  0.48440993  0.88839336    -0.43800
C2329       C  0.35174704  0.23264191  0.88236335    -0.00200
C2330       C  0.31406117  0.19862815  0.88532513    -0.12100
C2331       C  0.30947967  0.16024092  0.88571727     0.02000
C2332       C  0.34307155  0.15503926  0.88290941    -0.00300
C2333       C  0.38161597  0.18928675  0.88119689    -0.12000
C2334       C  0.38630875  0.22800754  0.88102535     0.01900
H2335       H  0.28748390  0.20172377  0.88697639     0.14900
H2336       H  0.40789693  0.18577116  0.87945057     0.14900
C2337       C  0.42666994  0.26201311  0.87926768     0.36500
C2338       C  0.26971401  0.12688897  0.88892877     0.36400
N2339       N  0.45915018  0.28920138  0.87798990    -0.43800
N2340       N  0.23783372  0.10030879  0.89154145    -0.43800
C2341       C  0.37882282  0.35398623  0.83388258    -0.00200
C2342       C  0.40271110  0.39331917  0.82893195    -0.12100
C2343       C  0.40529600  0.40129204  0.81494727     0.02000
C2344       C  0.38356929  0.36956310  0.80558080    -0.00300
C2345       C  0.36273577  0.32992629  0.81044031    -0.12000
C2346       C  0.36029014  0.32189605  0.82441126     0.01900
H2347       H  0.41801480  0.41817871  0.83601063     0.14900
H2348       H  0.34666768  0.30520770  0.80335713     0.14900
C2349       C  0.33840926  0.28037448  0.82870948     0.36500
C2350       C  0.43066166  0.44230574  0.81046905     0.36400
N2351       N  0.32109343  0.24708829  0.83214879    -0.43800
N2352       N  0.45127597  0.47510694  0.80686343    -0.43800
C2353       C  0.12586139  0.44146996  0.93390405    -0.00200
C2354       C  0.13698500  0.41213903  0.93143586    -0.12100
C2355       C  0.11882971  0.38369783  0.92098136     0.02000
C2356       C  0.08907033  0.38449815  0.91245299    -0.00300
C2357       C  0.07885946  0.41452668  0.91458575    -0.12000
C2358       C  0.09625725  0.44239484  0.92523590     0.01900
H2359       H  0.16001926  0.41124399  0.93773587     0.14900
H2360       H  0.05603120  0.41542823  0.90816096     0.14900
C2361       C  0.08021509  0.46903500  0.92753335     0.36500
C2362       C  0.13213513  0.35463722  0.91915490     0.36400
N2363       N  0.06704993  0.49018787  0.92926957    -0.43800
N2364       N  0.14289573  0.33141321  0.91775874    -0.43800
C2365       C  0.15258208  0.31023470  0.87648476    -0.00200
C2366       C  0.18300035  0.34191703  0.86891612    -0.12100
C2367       C  0.22290806  0.34908826  0.86873471     0.02000
C2368       C  0.23308989  0.32340477  0.87593986    -0.00300
C2369       C  0.20263141  0.29152246  0.88348716    -0.12000
C2370       C  0.16284833  0.28503331  0.88396806     0.01900
H2371       H  0.17586919  0.36196689  0.86329264     0.14900
H2372       H  0.21000073  0.27184764  0.88923188     0.14900
C2373       C  0.13400549  0.25346523  0.89268833     0.36500
C2374       C  0.25274542  0.38395242  0.86141262     0.36400
N2375       N  0.11111942  0.22837829  0.89978686    -0.43800
N2376       N  0.27658567  0.41218159  0.85564700    -0.43800
C2377       C  0.03508538  0.34014841  0.73490370    -0.00200
C2378       C  0.99974661  0.30225636  0.73360006    -0.12100
C2379       C  0.99150366  0.27969331  0.72158429     0.02000
C2380       C  0.01968590  0.29449884  0.71085504    -0.00300
C2381       C  0.05270160  0.33390577  0.71167643    -0.12000
C2382       C  0.06016552  0.35704038  0.72339824     0.01900
H2383       H  0.97928847  0.28952999  0.74213630     0.14900
H2384       H  0.07338336  0.34635011  0.70317099     0.14900
C2385       C  0.09393466  0.39785946  0.72323930     0.36500
C2386       C  0.95454607  0.24135489  0.72072004     0.36400
N2387       N  0.12079355  0.43064244  0.72301711    -0.43800
N2388       N  0.92419893  0.21114397  0.72015158    -0.43800
C2389       C  0.18093996  0.39088096  0.77406126    -0.00200
C2390       C  0.21776742  0.42769724  0.77427547    -0.12100
C2391       C  0.25518021  0.42910672  0.77298775     0.02000
C2392       C  0.25632400  0.39298557  0.77159557    -0.00300
C2393       C  0.21968707  0.35612437  0.77182824    -0.12000
C2394       C  0.18221721  0.35468830  0.77292322     0.01900
H2395       H  0.21742611  0.45573052  0.77521668     0.14900
H2396       H  0.22017265  0.32819085  0.77074597     0.14900
C2397       C  0.14586793  0.31560681  0.77236427     0.36500
C2398       C  0.29172984  0.46808215  0.77321379     0.36400
N2399       N  0.11691253  0.28416897  0.77183637    -0.43800
N2400       N  0.32095568  0.49935580  0.77337576    -0.43800
C2401       C  0.03641709  0.35698879  0.81214547    -0.00200
C2402       C  0.02474756  0.31706823  0.81540252    -0.12100
C2403       C  0.02108983  0.30454466  0.82893079     0.02000
C2404       C  0.02900445  0.33231461  0.83962089    -0.00300
C2405       C  0.03757278  0.37145311  0.83630309    -0.12000
C2406       C  0.04131914  0.38394296  0.82274603     0.01900
H2407       H  0.02038461  0.29593833  0.80735582     0.14900
H2408       H  0.04278023  0.39290574  0.84432173     0.14900
C2409       C  0.05015261  0.42455445  0.82003113     0.36500
C2410       C  0.01019777  0.26322711  0.83140254     0.36400
N2411       N  0.05702166  0.45703830  0.81787197    -0.43800
N2412       N  0.00149066  0.23008464  0.83330869    -0.43800
C2413       C  0.07784611  0.72418212  0.91032316    -0.00200
C2414       C  0.11912753  0.73640994  0.91167547    -0.12100
C2415       C  0.13500843  0.73236406  0.92401975     0.02000
C2416       C  0.10936479  0.71620113  0.93552273    -0.00300
C2417       C  0.06716900  0.70094933  0.93359230    -0.12000
C2418       C  0.05152839  0.70534283  0.92127639     0.01900
H2419       H  0.13934688  0.75018463  0.90312969     0.14900
H2420       H  0.04531284  0.68419684  0.94134905     0.14900
C2421       C  0.00802547  0.68862831  0.91998230     0.36500
C2422       C  0.17791099  0.74543937  0.92445933     0.36400
N2423       N  0.97319136  0.67507576  0.91893423    -0.43800
N2424       N  0.21239806  0.75639436  0.92472942    -0.43800
C2425       C  0.14056503  0.86658134  0.86931154    -0.00200
C2426       C  0.17421483  0.86878561  0.86255605    -0.12100
C2427       C  0.21148915  0.90473038  0.86206881     0.02000
C2428       C  0.21571338  0.93959968  0.86846093    -0.00300
C2429       C  0.18148803  0.93810966  0.87447680    -0.12000
C2430       C  0.14417680  0.90213792  0.87499043     0.01900
H2431       H  0.17179935  0.84204686  0.85787905     0.14900
H2432       H  0.18426352  0.96479362  0.87932578     0.14900
C2433       C  0.11083387  0.90266463  0.88182435     0.36500
C2434       C  0.24467188  0.90481499  0.85488854     0.36400
N2435       N  0.08423240  0.90328168  0.88731950    -0.43800
N2436       N  0.27112330  0.90478051  0.84908055    -0.43800
C2437       C  0.04773978  0.76365384  0.71351497    -0.00200
C2438       C  0.02347311  0.75877348  0.72501080    -0.12100
C2439       C  0.02733518  0.74120682  0.73701150     0.02000
C2440       C  0.05608897  0.72817488  0.73789132    -0.00300
C2441       C  0.08189870  0.73506435  0.72683398    -0.12000
C2442       C  0.07813332  0.75246620  0.71483429     0.01900
H2443       H  0.00089142  0.76742030  0.72490302     0.14900
H2444       H  0.10483539  0.72617973  0.72743721     0.14900
C2445       C  0.10540471  0.75702037  0.70392076     0.36500
C2446       C  0.00137979  0.73743371  0.74826776     0.36400
N2447       N  0.12755147  0.76032844  0.69532939    -0.43800
N2448       N  0.98059919  0.73455241  0.75726980    -0.43800
C2449       C  0.25918551  0.85913143  0.78094500    -0.00200
C2450       C  0.26005446  0.82433212  0.77697679    -0.12100
C2451       C  0.22470465  0.78653337  0.77703603     0.02000
C2452       C  0.18737718  0.78322380  0.78101656    -0.00300
C2453       C  0.18721943  0.81744593  0.78600376    -0.12000
C2454       C  0.22262336  0.85507881  0.78612845     0.01900
H2455       H  0.28809210  0.82678777  0.77326255     0.14900
H2456       H  0.15900471  0.81507123  0.78949226     0.14900
C2457       C  0.22009731  0.88881062  0.79151354     0.36500
C2458       C  0.22753114  0.75231052  0.77231558     0.36400
N2459       N  0.21790155  0.91566736  0.79591092    -0.43800
N2460       N  0.22984618  0.72489317  0.76856792    -0.43800
C2461       C  0.06392551  0.49559636  0.76706414    -0.00200
C2462       C  0.09799905  0.52990249  0.76190684    -0.12100
C2463       C  0.09912530  0.56682838  0.76116482     0.02000
C2464       C  0.06568749  0.57018769  0.76582586    -0.00300
C2465       C  0.03055257  0.53532593  0.77018740    -0.12000
C2466       C  0.02933974  0.49817847  0.77081796     0.01900
H2467       H  0.12433288  0.52810575  0.75863353     0.14900
H2468       H  0.00457487  0.53737812  0.77369900     0.14900
C2469       C  0.99301725  0.46389246  0.77599948     0.36500
C2470       C  0.13531967  0.60070041  0.75569282     0.36400
N2471       N  0.96392311  0.43635101  0.78013536    -0.43800
N2472       N  0.16432321  0.62779589  0.75130497    -0.43800
C2473       C  0.03110426  0.67568574  0.81138750    -0.00200
C2474       C  0.04872415  0.66543870  0.82211909    -0.12100
C2475       C  0.04497957  0.67472749  0.83555494     0.02000
C2476       C  0.02320117  0.69482859  0.83845858    -0.00300
C2477       C  0.00251127  0.70178276  0.82790634    -0.12000
C2478       C  0.00598585  0.69217973  0.81445496     0.01900
H2479       H  0.06753851  0.65214974  0.81996568     0.14900
H2480       H  0.98503840  0.71649850  0.83009266     0.14900
C2481       C  0.98546132  0.70200170  0.80405327     0.36500
C2482       C  0.06683683  0.66641444  0.84591421     0.36400
N2483       N  0.96886396  0.70990557  0.79577667    -0.43800
N2484       N  0.08443131  0.65982062  0.85419843    -0.43800
C2485       C  0.67838729  0.98606764  0.91731603    -0.00200
C2486       C  0.65624613  0.00380455  0.92221425    -0.12100
C2487       C  0.63270646  0.98950545  0.93405503     0.02000
C2488       C  0.63040152  0.95624117  0.94116959    -0.00300
C2489       C  0.65197347  0.93821102  0.93612989    -0.12000
C2490       C  0.67566128  0.95256722  0.92438438     0.01900
H2491       H  0.65808618  0.02953194  0.91696958     0.14900
H2492       H  0.64968492  0.91217189  0.94122619     0.14900
C2493       C  0.69560196  0.93117311  0.91958560     0.36500
C2494       C  0.61345437  0.01122006  0.93915459     0.36400
N2495       N  0.71155550  0.91405893  0.91570385    -0.43800
N2496       N  0.59810065  0.02859880  0.94332197    -0.43800
C2497       C  0.92864606  0.20518443  0.88654076    -0.00200
C2498       C  0.92784542  0.16860258  0.88865209    -0.12100
C2499       C  0.89128382  0.13193580  0.88880816     0.02000
C2500       C  0.85373420  0.13103421  0.88698061    -0.00300
C2501       C  0.85432460  0.16784027  0.88546170    -0.12000
C2502       C  0.89122474  0.20466153  0.88512218     0.01900
H2503       H  0.95621352  0.16842738  0.88985217     0.14900
H2504       H  0.82595713  0.16780990  0.88398084     0.14900
C2505       C  0.88964412  0.24089739  0.88246152     0.36500
C2506       C  0.89397048  0.09590478  0.89052468     0.36400
N2507       N  0.88818234  0.26980822  0.88023962    -0.43800
N2508       N  0.89673539  0.06735399  0.89183505    -0.43800
C2509       C  0.75500295  0.01994860  0.71253692    -0.00200
C2510       C  0.77425545  0.01704881  0.72431932    -0.12100
C2511       C  0.75838548  0.01639133  0.73719884     0.02000
C2512       C  0.72154702  0.01696901  0.73838704    -0.00300
C2513       C  0.70380574  0.02247520  0.72664107    -0.12000
C2514       C  0.72074242  0.02496309  0.71381191     0.01900
H2515       H  0.80125233  0.01425906  0.72341599     0.14900
H2516       H  0.67593969  0.02373469  0.72745263     0.14900
C2517       C  0.70122797  0.03097837  0.70217147     0.36500
C2518       C  0.77928447  0.01273656  0.74890561     0.36400
N2519       N  0.68527853  0.03640479  0.69305039    -0.43800
N2520       N  0.79631492  0.01018937  0.75828197    -0.43800
C2521       C  0.54961311  0.98311925  0.76823240    -0.00200
C2522       C  0.51425925  0.94728639  0.76457348    -0.12100
C2523       C  0.47636171  0.94504121  0.76382757     0.02000
C2524       C  0.47290983  0.97940503  0.76673459    -0.00300
C2525       C  0.50856664  0.01589908  0.76970320    -0.12000
C2526       C  0.54665949  0.01806408  0.77048113     0.01900
H2527       H  0.51592374  0.92031758  0.76254849     0.14900
H2528       H  0.50656545  0.04258980  0.77190062     0.14900
C2529       C  0.58173562  0.05622519  0.77399836     0.36500
C2530       C  0.44162298  0.90658108  0.76029798     0.36400
N2531       N  0.60981252  0.08686574  0.77681313    -0.43800
N2532       N  0.41390430  0.87564504  0.75752125    -0.43800
C2533       C  0.68492531  0.00922348  0.81418381    -0.00200
C2534       C  0.65839413  0.98281745  0.82406955    -0.12100
C2535       C  0.66848530  0.98848028  0.83788792     0.02000
C2536       C  0.70615469  0.02111865  0.84216428    -0.00300
C2537       C  0.73235922  0.04816794  0.83235825    -0.12000
C2538       C  0.72192315  0.04287172  0.81850954     0.01900
H2539       H  0.62983710  0.95688581  0.82098387     0.14900
H2540       H  0.76140973  0.07330071  0.83551255     0.14900
C2541       C  0.75034564  0.07181981  0.80901616     0.36500
C2542       C  0.64065034  0.95866905  0.84730533     0.36400
N2543       N  0.77308655  0.09518101  0.80143006    -0.43800
N2544       N  0.61827383  0.93463551  0.85479776    -0.43800
C2545       C  0.71830125  0.71254444  0.73285853    -0.00200
C2546       C  0.75851015  0.74445917  0.73417654    -0.12100
C2547       C  0.78144764  0.76459406  0.72272897     0.02000
C2548       C  0.76457851  0.75220672  0.70966410    -0.00300
C2549       C  0.72565301  0.71843351  0.70825901    -0.12000
C2550       C  0.70230087  0.69873729  0.71970740     0.01900
H2551       H  0.77126464  0.75532229  0.74418960     0.14900
H2552       H  0.71268093  0.70871211  0.69820284     0.14900
C2553       C  0.66186825  0.66494971  0.71765600     0.36500
C2554       C  0.82175588  0.79865679  0.72463540     0.36400
N2555       N  0.62947920  0.63784934  0.71599987    -0.43800
N2556       N  0.85408836  0.82589369  0.72621918    -0.43800
C2557       C  0.65267575  0.86659171  0.77219975    -0.00200
C2558       C  0.61497467  0.83120480  0.77046361    -0.12100
C2559       C  0.61228921  0.79353140  0.76920582     0.02000
C2560       C  0.64782134  0.79039562  0.77019667    -0.00300
C2561       C  0.68552451  0.82579187  0.77190284    -0.12000
C2562       C  0.68838103  0.86358969  0.77268160     0.01900
H2563       H  0.58734260  0.83295709  0.76978329     0.14900
H2564       H  0.71322569  0.82412447  0.77242799     0.14900
C2565       C  0.72858467  0.89850829  0.77353383     0.36500
C2566       C  0.57283782  0.75916123  0.76633204     0.36400
N2567       N  0.76099712  0.92624033  0.77407162    -0.43800
N2568       N  0.54119647  0.73187650  0.76383682    -0.43800
C2569       C  0.54781453  0.56927835  0.76121006    -0.00200
C2570       C  0.51252715  0.56758289  0.75592795    -0.12100
C2571       C  0.47570781  0.53119477  0.75508460     0.02000
C2572       C  0.47347448  0.49509514  0.75961396    -0.00300
C2573       C  0.50924648  0.49636874  0.76417818    -0.12000
C2574       C  0.54615622  0.53289324  0.76503873     0.01900
H2575       H  0.51338564  0.59503700  0.75267317     0.14900
H2576       H  0.50807800  0.46896095  0.76765677     0.14900
C2577       C  0.58113082  0.53205951  0.77047353     0.36500
C2578       C  0.44080857  0.53222492  0.74963156     0.36400
N2579       N  0.60907896  0.53124123  0.77484674    -0.43800
N2580       N  0.41299368  0.53331070  0.74526242    -0.43800
C2581       C  0.69021917  0.71102640  0.91215906    -0.00200
C2582       C  0.65869055  0.67364765  0.91668721    -0.12100
C2583       C  0.63889069  0.67027143  0.92912556     0.02000
C2584       C  0.65020175  0.70510932  0.93713862    -0.00300
C2585       C  0.68344797  0.74169942  0.93284358    -0.12000
C2586       C  0.70259984  0.74523813  0.92050194     0.01900
H2587       H  0.64931265  0.64708697  0.91046077     0.14900
H2588       H  0.69416243  0.76850665  0.93902880     0.14900
C2589       C  0.73281597  0.78534093  0.91630090     0.36500
C2590       C  0.60711862  0.63084447  0.93310895     0.36400
N2591       N  0.75663867  0.81749643  0.91288801    -0.43800
N2592       N  0.58208069  0.59878205  0.93615647    -0.43800
C2593       C  0.74477857  0.84170817  0.87246675    -0.00200
C2594       C  0.78122826  0.87629311  0.87623043    -0.12100
C2595       C  0.78324687  0.91347851  0.87781908     0.02000
C2596       C  0.74818404  0.91675140  0.87549785    -0.00300
C2597       C  0.71201061  0.88236402  0.87135810    -0.12000
C2598       C  0.70999101  0.84511446  0.86982574     0.01900
H2599       H  0.80821291  0.87417317  0.87831298     0.14900
H2600       H  0.68490912  0.88438423  0.86941698     0.14900
C2601       C  0.67185420  0.81116529  0.86548465     0.36500
C2602       C  0.82159124  0.94722462  0.88211895     0.36400
N2603       N  0.64128536  0.78399657  0.86198427    -0.43800
N2604       N  0.85242556  0.97405794  0.88559287    -0.43800
C2605       C  0.84970514  0.73196924  0.88179304    -0.00200
C2606       C  0.85211092  0.69701909  0.87969418    -0.12100
C2607       C  0.88981593  0.69858923  0.87977355     0.02000
C2608       C  0.92586310  0.73588569  0.88185432    -0.00300
C2609       C  0.92289641  0.76987501  0.88519985    -0.12000
C2610       C  0.88536442  0.76821778  0.88532191     0.01900
H2611       H  0.82477410  0.66883847  0.87732531     0.14900
H2612       H  0.95018735  0.79829866  0.88738270     0.14900
C2613       C  0.88469235  0.80442325  0.88898953     0.36500
C2614       C  0.89051996  0.66193588  0.87702515     0.36400
N2615       N  0.88423526  0.83342950  0.89194950    -0.43800
N2616       N  0.89104020  0.63250425  0.87487071    -0.43800
C2617       C  0.70990062  0.69273069  0.83476109    -0.00200
C2618       C  0.66834188  0.66801953  0.83175584    -0.12100
C2619       C  0.65415865  0.66104102  0.81830287     0.02000
C2620       C  0.68195397  0.67780859  0.80747120    -0.00300
C2621       C  0.72367152  0.70016528  0.81042311    -0.12000
C2622       C  0.73780773  0.70842275  0.82384572     0.01900
H2623       H  0.64651166  0.65571404  0.83994975     0.14900
H2624       H  0.74528336  0.71340759  0.80219654     0.14900
C2625       C  0.78093837  0.73480118  0.82594188     0.36500
C2626       C  0.61086222  0.63725008  0.81595425     0.36400
N2627       N  0.81546942  0.75635484  0.82749936    -0.43800
N2628       N  0.57611580  0.61832793  0.81412538    -0.43800
loop_ 
_geom_bond_atom_site_label_1 
_geom_bond_atom_site_label_2 
_geom_bond_distance 
_geom_bond_site_symmetry_2 
_ccdc_geom_bond_type 
In1           O3   2.270       .  S
In1           O4   2.229       .  S
In1          O12   2.257       .  S
In1           O6   2.190       .  S
In1           O8   2.227       .  S
In1           O9   2.289       .  S
In1          O10   2.245       .  S
In1          O13   2.202       .  S
C2            O8   1.258       .  A
C2           O10   1.261       .  A
C2         C2593   1.480       .  S
O3           C11   1.265       .  A
O4           C11   1.257       .  A
C5           O12   1.267       .  A
C5            O6   1.257       .  A
C5         C2605   1.475       .  S
C7            O9   1.267       .  A
C7           O13   1.256       .  A
C7         C2581   1.486       .  S
C11        C2617   1.490       .  S
In14         O16   2.246       .  S
In14         O17   2.254       .  S
In14         O25   2.252       .  S
In14         O19   2.232       .  S
In14         O21   2.257       .  S
In14         O22   2.255       .  S
In14         O23   2.238       .  S
In14         O26   2.247       .  S
C15          O21   1.260       .  A
C15          O23   1.258       .  A
C15        C2560   1.487       .  S
O16          C24   1.260       .  A
O17          C24   1.263       .  A
C18          O25   1.263       .  A
C18          O19   1.262       .  A
C18        C2569   1.488       .  S
C20          O22   1.261       .  A
C20          O26   1.259       .  A
C20        C2545   1.484       .  S
C24        C2620   1.484       .  S
In27         O29   2.241       .  S
In27         O30   2.262   1_565  S
In27         O38   2.262   1_565  S
In27         O32   2.226       .  S
In27         O34   2.246       .  S
In27         O35   2.269   1_565  S
In27         O36   2.245       .  S
In27         O39   2.235       .  S
C28          O34   1.261       .  A
C28          O36   1.259       .  A
C28        C2557   1.487       .  S
O29          C37   1.258   1_565  A
O30          C37   1.262       .  A
C31          O38   1.264   1_565  A
C31          O32   1.262       .  A
C31        C2521   1.490       .  S
C33          O35   1.264   1_565  A
C33          O39   1.259       .  A
C33        C2533   1.491   1_565  S
C37        C2512   1.483       .  S
In40         O42   2.230   1_545  S
In40         O43   2.289       .  S
In40         O51   2.276       .  S
In40         O45   2.224       .  S
In40         O47   2.235   1_545  S
In40         O48   2.260       .  S
In40         O49   2.236   1_545  S
In40         O52   2.253       .  S
C41          O47   1.260       .  A
C41          O49   1.260       .  A
C41        C2596   1.482       .  S
O42          C50   1.256   1_565  A
O43          C50   1.265       .  A
C44          O51   1.266       .  A
C44          O45   1.258       .  A
C44        C2500   1.493       .  S
C46          O48   1.262       .  A
C46          O52   1.259       .  A
C46        C2536   1.486       .  S
C50        C2485   1.493   1_545  S
In53         O55   2.234       .  S
In53         O56   2.258       .  S
In53         O64   2.266       .  S
In53         O58   2.213       .  S
In53         O60   2.235       .  S
In53         O61   2.250       .  S
In53         O62   2.229       .  S
In53         O65   2.223       .  S
C54          O60   1.260       .  A
C54          O62   1.261       .  A
C54        C2452   1.478       .  S
O55          C63   1.257       .  A
O56          C63   1.262       .  A
C57          O64   1.263       .  A
C57          O58   1.256       .  A
C57        C2464   1.482       .  S
C59          O61   1.263       .  A
C59          O65   1.260       .  A
C59        C2473   1.483       .  S
C63        C2440   1.487       .  S
In66         O68   2.231       .  S
In66         O69   2.243       .  S
In66         O77   2.229   1_455  S
In66         O71   2.214   1_455  S
In66         O73   2.252       .  S
In66         O74   2.234       .  S
In66         O75   2.235       .  S
In66         O78   2.231       .  S
C67          O73   1.260       .  A
C67          O75   1.258       .  A
C67        C2425   1.484       .  S
O68          C76   1.256       .  A
O69          C76   1.257       .  A
C70          O77   1.263       .  A
C70          O71   1.264       .  A
C70        C2608   1.476       .  S
C72          O74   1.261       .  A
C72          O78   1.261       .  A
C72        C2476   1.477       .  S
C76        C2413   1.468       .  S
In79         O81   2.236       .  S
In79         O82   2.256       .  S
In79         O90   2.240       .  S
In79         O84   2.224       .  S
In79         O86   2.236       .  S
In79         O87   2.269       .  S
In79         O88   2.236       .  S
In79         O91   2.215       .  S
C80          O86   1.263       .  A
C80          O88   1.261       .  A
C80        C2389   1.484       .  S
O81          C89   1.259       .  A
O82          C89   1.264       .  A
C83          O90   1.262       .  A
C83          O84   1.262       .  A
C83        C2461   1.481       .  S
C85          O87   1.265       .  A
C85          O91   1.257       .  A
C85        C2377   1.486       .  S
C89        C2401   1.484       .  S
In92         O94   2.233       .  S
In92         O95   2.264       .  S
In92        O103   2.271   1_455  S
In92         O97   2.231       .  S
In92         O99   2.248       .  S
In92        O100   2.265       .  S
In92        O101   2.225       .  S
In92        O104   2.239       .  S
C93          O99   1.263       .  A
C93         O101   1.261       .  A
C93        C2365   1.484       .  S
O94         C102   1.260       .  A
O95         C102   1.265       .  A
C96         O103   1.262       .  A
C96          O97   1.260   1_655  A
C96        C2497   1.489       .  S
C98         O100   1.265       .  A
C98         O104   1.258       .  A
C98        C2356   1.489       .  S
C102       C2404   1.491       .  S
In105       O107   2.244       .  S
In105       O108   2.269       .  S
In105       O116   2.253       .  S
In105       O110   2.201       .  S
In105       O112   2.251       .  S
In105       O113   2.280       .  S
In105       O114   2.242       .  S
In105       O117   2.235       .  S
C106        O112   1.258       .  A
C106        O114   1.259       .  A
C106       C2368   1.486       .  S
O107        C115   1.256       .  A
O108        C115   1.261       .  A
C109        O116   1.267       .  A
C109        O110   1.262       .  A
C109       C2329   1.482       .  S
C111        O113   1.266       .  A
C111        O117   1.258       .  A
C111       C2341   1.492       .  S
C115       C2320   1.490       .  S
In118       O120   2.248       .  S
In118       O121   2.287       .  S
In118       O129   2.258       .  S
In118       O123   2.221       .  S
In118       O125   2.240       .  S
In118       O126   2.277       .  S
In118       O127   2.243       .  S
In118       O130   2.237       .  S
C119        O125   1.258       .  A
C119        O127   1.259       .  A
C119       C2392   1.479       .  S
O120        C128   1.257       .  A
O121        C128   1.264       .  A
C122        O129   1.267       .  A
C122        O123   1.260       .  A
C122       C2572   1.486       .  S
C124        O126   1.266       .  A
C124        O130   1.258       .  A
C124       C2344   1.489       .  S
C128       C2305   1.500       .  S
In131       O133   2.229       .  S
In131       O134   2.252       .  S
In131       O142   2.255       .  S
In131       O136   2.210       .  S
In131       O138   2.238       .  S
In131       O139   2.269       .  S
In131       O140   2.236   1_545  S
In131       O143   2.214       .  S
C132        O138   1.262   1_565  A
C132        O140   1.261       .  A
C132       C2428   1.479       .  S
O133        C141   1.258       .  A
O134        C141   1.264       .  A
C135        O142   1.263       .  A
C135        O136   1.259       .  A
C135       C2332   1.479       .  S
C137        O139   1.265       .  A
C137        O143   1.257       .  A
C137       C2281   1.484       .  S
C141       C2293   1.485       .  S
In144       O146   2.223       .  S
In144       O147   2.257   1_565  S
In144       O155   2.273   1_565  S
In144       O149   2.224       .  S
In144       O151   2.243       .  S
In144       O152   2.267   1_565  S
In144       O153   2.238       .  S
In144       O156   2.248       .  S
C145        O151   1.260       .  A
C145        O153   1.259       .  A
C145       C2449   1.481       .  S
O146        C154   1.259   1_565  A
O147        C154   1.263       .  A
C148        O155   1.264   1_565  A
C148        O149   1.258       .  A
C148       C2524   1.490       .  S
C150        O152   1.259   1_565  A
C150        O156   1.259       .  A
C150       C2269   1.492       .  S
C154       C2296   1.478       .  S
In157       O159   2.229       .  S
In157       O160   2.259       .  S
In157       O168   2.258       .  S
In157       O162   2.219       .  S
In157       O164   2.238       .  S
In157       O165   2.255       .  S
In157       O166   2.231       .  S
In157       O169   2.231       .  S
C158        O164   1.261       .  A
C158        O166   1.259       .  A
C158       C2233   1.481       .  S
O159        C167   1.259       .  A
O160        C167   1.263       .  A
C161        O168   1.264       .  A
C161        O162   1.259       .  A
C161       C2248   1.487       .  S
C163        O165   1.262       .  A
C163        O169   1.259       .  A
C163       C2257   1.485       .  S
C167       C2221   1.487       .  S
In170       O172   2.228       .  S
In170       O173   2.252       .  S
In170       O181   2.252   1_545  S
In170       O175   2.226   1_545  S
In170       O177   2.253       .  S
In170       O178   2.250       .  S
In170       O179   2.240       .  S
In170       O182   2.244       .  S
C171        O177   1.262       .  A
C171        O179   1.260       .  A
C171       C2197   1.489       .  S
O172        C180   1.259       .  A
O173        C180   1.264       .  A
C174        O181   1.263       .  A
C174        O175   1.262       .  A
C174       C2212   1.482       .  S
C176        O178   1.262       .  A
C176        O182   1.261       .  A
C176       C2260   1.488       .  S
C180       C2185   1.480       .  S
In183       O185   2.238       .  S
In183       O186   2.263       .  S
In183       O194   2.260   1_545  S
In183       O188   2.209   1_545  S
In183       O190   2.248       .  S
In183       O191   2.245       .  S
In183       O192   2.226       .  S
In183       O195   2.260       .  S
C184        O190   1.261       .  A
C184        O192   1.258       .  A
C184       C2164   1.483       .  S
O185        C193   1.259       .  A
O186        C193   1.264       .  A
C187        O194   1.265       .  A
C187        O188   1.259       .  A
C187       C2149   1.487       .  S
C189        O191   1.263       .  A
C189        O195   1.260       .  A
C189       C2137   1.485       .  S
C193       C2176   1.484       .  S
In196       O198   2.230       .  S
In196       O199   2.263       .  S
In196       O207   2.256       .  S
In196       O201   2.219       .  S
In196       O203   2.242       .  S
In196       O204   2.256       .  S
In196       O205   2.240       .  S
In196       O208   2.234       .  S
C197        O203   1.258       .  A
C197        O205   1.258       .  A
C197       C2125   1.481       .  S
O198        C206   1.258       .  A
O199        C206   1.262       .  A
C200        O207   1.264       .  A
C200        O201   1.260       .  A
C200       C2245   1.485       .  S
C202        O204   1.262       .  A
C202        O208   1.259       .  A
C202       C2113   1.481       .  S
C206       C2173   1.481       .  S
In209       O211   2.213       .  S
In209       O212   2.272   1_655  S
In209       O220   2.243   1_655  S
In209       O214   2.212       .  S
In209       O216   2.233       .  S
In209       O217   2.217       .  S
In209       O218   2.227       .  S
In209       O221   2.261   1_655  S
C210        O216   1.261       .  A
C210        O218   1.260       .  A
C210       C2077   1.480       .  S
O211        C219   1.258   1_655  A
O212        C219   1.265       .  A
C213        O220   1.263   1_655  A
C213        O214   1.260       .  A
C213       C2089   1.475       .  S
C215        O217   1.258   1_455  A
C215        O221   1.266       .  A
C215       C2104   1.483       .  S
C219       C2068   1.489       .  S
In222       O224   2.235       .  S
In222       O225   2.267   1_455  S
In222       O233   2.254       .  S
In222       O227   2.214       .  S
In222       O229   2.236   1_455  S
In222       O230   2.254       .  S
In222       O231   2.233   1_455  S
In222       O234   2.234       .  S
C223        O229   1.260       .  A
C223        O231   1.260       .  A
C223       C2053   1.481       .  S
O224        C232   1.259   1_455  A
O225        C232   1.262       .  A
C226        O233   1.264       .  A
C226        O227   1.262       .  A
C226       C2152   1.486       .  S
C228        O230   1.265       .  A
C228        O234   1.259       .  A
C228       C2101   1.483       .  S
C232       C2041   1.485       .  S
In235       O237   2.233       .  S
In235       O238   2.259       .  S
In235       O246   2.243       .  S
In235       O240   2.220       .  S
In235       O242   2.243       .  S
In235       O243   2.255       .  S
In235       O244   2.217       .  S
In235       O247   2.238       .  S
C236        O242   1.262       .  A
C236        O244   1.260       .  A
C236       C2128   1.477       .  S
O237        C245   1.259       .  A
O238        C245   1.264       .  A
C239        O246   1.263       .  A
C239        O240   1.261       .  A
C239       C2017   1.481       .  S
C241        O243   1.265       .  A
C241        O247   1.260       .  A
C241       C2032   1.486       .  S
C245       C2005   1.485       .  S
In248       O250   2.255       .  S
In248       O251   2.263       .  S
In248       O259   2.245       .  S
In248       O253   2.217       .  S
In248       O255   2.256       .  S
In248       O256   2.263       .  S
In248       O257   2.236       .  S
In248       O260   2.240       .  S
C249        O255   1.258       .  A
C249        O257   1.258       .  A
C249       C2161   1.484       .  S
O250        C258   1.257       .  A
O251        C258   1.260       .  A
C252        O259   1.265       .  A
C252        O253   1.263       .  A
C252       C1996   1.482       .  S
C254        O256   1.264       .  A
C254        O260   1.259       .  A
C254       C2029   1.484       .  S
C258       C1981   1.488       .  S
In261       O263   2.238       .  S
In261       O264   2.238   1_655  S
In261       O272   2.243   1_655  S
In261       O266   2.225       .  S
In261       O268   2.238       .  S
In261       O269   2.256   1_655  S
In261       O270   2.222       .  S
In261       O273   2.221       .  S
C262        O268   1.263       .  A
C262        O270   1.261       .  A
C262       C2236   1.481       .  S
O263        C271   1.262   1_655  A
O264        C271   1.262       .  A
C265        O272   1.261   1_655  A
C265        O266   1.259       .  A
C265       C2092   1.472       .  S
C267        O269   1.263   1_655  A
C267        O273   1.256       .  A
C267       C1957   1.476       .  S
C271       C1969   1.484       .  S
In274       O276   2.238       .  S
In274       O277   2.238       .  S
In274       O285   2.246       .  S
In274       O279   2.229       .  S
In274       O281   2.256       .  S
In274       O282   2.258       .  S
In274       O283   2.246   1_455  S
In274       O286   2.219       .  S
C275        O281   1.261   1_655  A
C275        O283   1.259       .  A
C275       C2200   1.488       .  S
O276        C284   1.262       .  A
O277        C284   1.262       .  A
C278        O285   1.262       .  A
C278        O279   1.261       .  A
C278       C1993   1.479       .  S
C280        O282   1.262       .  A
C280        O286   1.259       .  A
C280       C1945   1.477       .  S
C284       C1972   1.485       .  S
In287       O289   2.277       .  S
In287       O290   2.218       .  S
In287       O298   2.268       .  S
In287       O292   2.207       .  S
In287       O294   2.219       .  S
In287       O295   2.288       .  S
In287       O296   2.250       .  S
In287       O299   2.226       .  S
C288        O294   1.258       .  A
C288        O296   1.261       .  A
C288       C2056   1.480       .  S
O289        C297   1.267       .  A
O290        C297   1.258       .  A
C291        O298   1.266       .  A
C291        O292   1.258       .  A
C291       C2209   1.484       .  S
C293        O295   1.266       .  A
C293        O299   1.257       .  A
C293       C1921   1.495       .  S
C297       C1933   1.488       .  S
In300       O302   2.243       .  S
In300       O303   2.255       .  S
In300       O311   2.255       .  S
In300       O305   2.216       .  S
In300       O307   2.234       .  S
In300       O308   2.269       .  S
In300       O309   2.234       .  S
In300       O312   2.240       .  S
C301        O307   1.260       .  A
C301        O309   1.262       .  A
C301       C2080   1.481       .  S
O302        C310   1.259       .  A
O303        C310   1.263       .  A
C304        O311   1.263       .  A
C304        O305   1.258       .  A
C304       C2020   1.479       .  S
C306        O308   1.264       .  A
C306        O312   1.257       .  A
C306       C1909   1.489       .  S
C310       C1936   1.489       .  S
C313        C314   1.540       .  S
C313        C319   1.539       .  S
C313        C317   1.559       .  S
C313       C1873   1.560       .  S
C314        H321   1.086       .  S
C314        C315   1.367       .  D
C315        C316   1.543       .  S
C315       C1885   1.504       .  S
C316        C320   1.537       .  S
C316        C318   1.549       .  S
C316        H322   1.110       .  S
C317        H323   1.082   1_554  S
C317        C318   1.383       .  D
C318       C1897   1.515   1_554  S
C319        H324   1.086       .  S
C319        C320   1.362       .  D
C320       C1924   1.487       .  S
C325        C326   1.540       .  S
C325        C331   1.537       .  S
C325        C329   1.547       .  S
C325       C1849   1.555       .  S
C326        H333   1.085       .  S
C326        C327   1.362       .  D
C327        C328   1.545       .  S
C327       C1861   1.481       .  S
C328        C332   1.543       .  S
C328        C330   1.544       .  S
C328        H334   1.107       .  S
C329        H335   1.085       .  S
C329        C330   1.377       .  D
C330       C1900   1.508       .  S
C331        H336   1.084       .  S
C331        C332   1.371       .  D
C332       C2584   1.505       .  S
C337        C338   1.565       .  S
C337        C343   1.535       .  S
C337        C341   1.538       .  S
C337       C1825   1.558       .  S
C338        H345   1.083       .  S
C338        C339   1.390       .  D
C339        C340   1.548       .  S
C339       C1837   1.521       .  S
C340        C344   1.533       .  S
C340        C342   1.537       .  S
C340        H346   1.107       .  S
C341        H347   1.087       .  S
C341        C342   1.360       .  D
C342       C1864   1.480       .  S
C343        H348   1.087       .  S
C343        C344   1.359       .  D
C344       C2317   1.483       .  S
C349        C350   1.561       .  S
C349        C355   1.535       .  S
C349        C353   1.554       .  S
C349       C1813   1.570       .  S
C350        H357   1.076   1_554  S
C350        C351   1.379       .  D
C351        C352   1.542       .  S
C351       C1840   1.505   1_554  S
C352        C356   1.535       .  S
C352        C354   1.543       .  S
C352        H358   1.110       .  S
C353        H359   1.086       .  S
C353        C354   1.374       .  D
C354       C1888   1.510       .  S
C355        H360   1.087       .  S
C355        C356   1.360       .  D
C356       C1984   1.484       .  S
C361        C362   1.543       .  S
C361        C367   1.520       .  S
C361        C365   1.544       .  S
C361       C1789   1.540       .  S
C362        H369   1.086       .  S
C362        C363   1.369       .  D
C363        C364   1.545       .  S
C363       C2044   1.499       .  S
C364        C368   1.556       .  S
C364        C366   1.559       .  S
C364        H370   1.108       .  S
C365        H371   1.085       .  S
C365        C366   1.373       .  D
C366       C1876   1.504       .  S
C367        H372   1.088       .  S
C367        C368   1.357       .  D
C368       C1801   1.499   1_655  S
C373        C374   1.523       .  S
C373        C379   1.534       .  S
C373        C377   1.532       .  S
C373       C2416   1.538       .  S
C374        H381   1.085       .  S
C374        C375   1.364       .  D
C375        C376   1.566       .  S
C375       C1777   1.511       .  S
C376        C380   1.549       .  S
C376        C378   1.568       .  S
C376        H382   1.104       .  S
C377        H383   1.075       .  S
C377        C378   1.370       .  D
C378       C1804   1.521       .  S
C379        H384   1.086       .  S
C379        C380   1.363       .  D
C380       C1765   1.489       .  S
C385        C386   1.541       .  S
C385        C391   1.532       .  S
C385        C389   1.555       .  S
C385       C1744   1.551       .  S
C386        H393   1.083       .  S
C386        C387   1.367       .  D
C387        C388   1.548       .  S
C387       C1792   1.508       .  S
C388        C392   1.534       .  S
C388        C390   1.541       .  S
C388        H394   1.103   1_655  S
C389        H395   1.073   1_554  S
C389        C390   1.378       .  D
C390       C1756   1.507   1_654  S
C391        H396   1.087       .  S
C391        C392   1.356       .  D
C392       C1948   1.474       .  S
C397        C398   1.535       .  S
C397        C403   1.537       .  S
C397        C401   1.548       .  S
C397       C1780   1.551       .  S
C398        H405   1.086       .  S
C398        C399   1.371       .  D
C399        C400   1.553       .  S
C399       C1828   1.502       .  S
C400        C404   1.538       .  S
C400        C402   1.548       .  S
C400        H406   1.110       .  S
C401        H407   1.082       .  S
C401        C402   1.373       .  D
C402       C2353   1.503       .  S
C403        H408   1.085       .  S
C403        C404   1.360       .  D
C404       C1753   1.484       .  S
C409        C410   1.552       .  S
C409        C415   1.533       .  S
C409        C413   1.538       .  S
C409       C1741   1.545       .  S
C410        H417   1.079       .  S
C410        C411   1.380       .  D
C411        C412   1.548       .  S
C411       C1729   1.517       .  S
C412        C416   1.539       .  S
C412        C414   1.545       .  S
C412        H418   1.097       .  S
C413        H419   1.086       .  S
C413        C414   1.365       .  D
C414       C1717   1.504       .  S
C415        H420   1.087       .  S
C415        C416   1.357       .  D
C416       C2188   1.477       .  S
C421        C422   1.537       .  S
C421        C427   1.534       .  S
C421        C425   1.548       .  S
C421       C1705   1.554       .  S
C422        H429   1.086       .  S
C422        C423   1.364       .  D
C423        C424   1.550       .  S
C423       C2488   1.497       .  S
C424        C428   1.540       .  S
C424        C426   1.560       .  S
C424        H430   1.108       .  S
C425        H431   1.073       .  S
C425        C426   1.381       .  D
C426       C1852   1.522       .  S
C427        H432   1.087       .  S
C427        C428   1.360       .  D
C428       C1732   1.491       .  S
C433        C434   1.535       .  S
C433        C439   1.521       .  S
C433        C437   1.549       .  S
C433       C1720   1.549       .  S
C434        H441   1.085       .  S
C434        C435   1.374       .  D
C435        C436   1.569       .  S
C435       C1816   1.519       .  S
C436        C440   1.556       .  S
C436        C438   1.543       .  S
C436        H442   1.110       .  S
C437        H443   1.079       .  S
C437        C438   1.367       .  D
C438       C2140   1.498       .  S
C439        H444   1.087       .  S
C439        C440   1.362       .  D
C440       C1696   1.502       .  S
C445        C446   1.526       .  S
C445        C451   1.538       .  S
C445        C449   1.540       .  S
C445       C2284   1.543       .  S
C446        H453   1.084   1_565  S
C446        C447   1.369       .  D
C447        C448   1.563       .  S
C447       C1693   1.510       .  S
C448        C452   1.550       .  S
C448        C450   1.547       .  S
C448        H454   1.109       .  S
C449        H455   1.085       .  S
C449        C450   1.370       .  D
C450       C1708   1.493       .  S
C451        H456   1.085       .  S
C451        C452   1.360       .  D
C452       C1768   1.493       .  S
C457        C458   1.548       .  S
C457        C463   1.529       .  S
C457        C461   1.528       .  S
C457       C2437   1.544       .  S
C458        H465   1.073   1_455  S
C458        C459   1.365   1_455  D
C459        C460   1.548   1_655  S
C459       C1657   1.494       .  S
C460        C464   1.562       .  S
C460        C462   1.562       .  S
C460        H466   1.109       .  S
C461        H467   1.086       .  S
C461        C462   1.364       .  D
C462       C1684   1.510   1_455  S
C463        H468   1.086       .  S
C463        C464   1.368       .  D
C464       C1669   1.500       .  S
C469        C470   1.540       .  S
C469        C475   1.523       .  S
C469        C473   1.541       .  S
C469       C1633   1.540       .  S
C470        H477   1.081       .  S
C470        C471   1.363       .  D
C471        C472   1.544       .  S
C471       C1621   1.487       .  S
C472        C476   1.555       .  S
C472        C474   1.569       .  S
C472        H478   1.109       .  S
C473        H479   1.086       .  S
C473        C474   1.375       .  D
C474       C1648   1.522       .  S
C475        H480   1.088       .  S
C475        C476   1.357       .  D
C476       C1681   1.494       .  S
C481        C482   1.548       .  S
C481        C487   1.542       .  S
C481        C485   1.553       .  S
C481       C1645   1.569       .  S
C482        H489   1.084       .  S
C482        C483   1.373       .  D
C483        C484   1.541       .  S
C483       C1600   1.503       .  S
C484        C488   1.536       .  S
C484        C486   1.543       .  S
C484        H490   1.100       .  S
C485        H491   1.085       .  S
C485        C486   1.384       .  D
C486       C1609   1.523       .  S
C487        H492   1.084       .  S
C487        C488   1.356       .  D
C488       C1585   1.477       .  S
C493        C494   1.529       .  S
C493        C499   1.531       .  S
C493        C497   1.558       .  S
C493       C1561   1.547       .  S
C494        H501   1.087       .  S
C494        C495   1.357   1_455  D
C495        C496   1.543       .  S
C495       C1573   1.476       .  S
C496        C500   1.541   1_655  S
C496        C498   1.545   1_655  S
C496        H502   1.109       .  S
C497        H503   1.082       .  S
C497        C498   1.382       .  D
C498       C1612   1.510   1_455  S
C499        H504   1.087       .  S
C499        C500   1.364       .  D
C500       C2380   1.485       .  S
C505        C506   1.547       .  S
C505        C511   1.542       .  S
C505        C509   1.543       .  S
C505       C1564   1.552       .  S
C506        H513   1.075       .  S
C506        C507   1.371       .  D
C507        C508   1.541       .  S
C507       C1549   1.493       .  S
C508        C512   1.541       .  S
C508        C510   1.542       .  S
C508        H514   1.110       .  S
C509        H515   1.086       .  S
C509        C510   1.368       .  D
C510       C1537   1.498       .  S
C511        H516   1.087       .  S
C511        C512   1.362       .  D
C512       C2308   1.489       .  S
C517        C518   1.550       .  S
C517        C523   1.533       .  S
C517        C521   1.535       .  S
C517       C1513   1.535       .  S
C518        H525   1.081       .  S
C518        C519   1.374       .  D
C519        C520   1.538       .  S
C519       C1552   1.491       .  S
C520        C524   1.533       .  S
C520        C522   1.541       .  S
C520        H526   1.108       .  S
C521        H527   1.084       .  S
C521        C522   1.365       .  D
C522       C1528   1.495       .  S
C523        H528   1.087       .  S
C523        C524   1.357       .  D
C524       C1504   1.474       .  S
C529        C530   1.543       .  S
C529        C535   1.540       .  S
C529        C533   1.549       .  S
C529       C1477   1.549       .  S
C530        H537   1.086       .  S
C530        C531   1.371       .  D
C531        C532   1.541       .  S
C531       C1489   1.497       .  S
C532        C536   1.534       .  S
C532        C534   1.541       .  S
C532        H538   1.111       .  S
C533        H539   1.085       .  S
C533        C534   1.369       .  D
C534       C1597   1.495       .  S
C535        H540   1.084       .  S
C535        C536   1.361       .  D
C536       C1465   1.479       .  S
C541        C542   1.560       .  S
C541        C547   1.541       .  S
C541        C545   1.542   1_565  S
C541       C1453   1.559       .  S
C542        H549   1.074       .  S
C542        C543   1.375   1_565  D
C543        C544   1.536       .  S
C543       C1492   1.498       .  S
C544        C548   1.531       .  S
C544        C546   1.533       .  S
C544        H550   1.111       .  S
C545        H551   1.086       .  S
C545        C546   1.362       .  D
C546       C1576   1.476       .  S
C547        H552   1.087       .  S
C547        C548   1.365   1_565  D
C548       C2509   1.485       .  S
C553        C554   1.526       .  S
C553        C559   1.527   1_545  S
C553        C557   1.545       .  S
C553       C2272   1.543   1_545  S
C554        H561   1.086       .  S
C554        C555   1.364       .  D
C555        C556   1.560       .  S
C555       C1441   1.506       .  S
C556        C560   1.564   1_545  S
C556        C558   1.554       .  S
C556        H562   1.108       .  S
C557        H563   1.081       .  S
C557        C558   1.369       .  D
C558       C1540   1.504       .  S
C559        H564   1.087       .  S
C559        C560   1.366       .  D
C560       C1672   1.499       .  S
C565        C566   1.540       .  S
C565        C571   1.522       .  S
C565        C569   1.530       .  S
C565       C1525   1.531       .  S
C566        H573   1.083       .  S
C566        C567   1.372       .  D
C567        C568   1.558       .  S
C567       C1480   1.508       .  S
C568        C572   1.545       .  S
C568        C570   1.545       .  S
C568        H574   1.110       .  S
C569        H575   1.085       .  S
C569        C570   1.366       .  D
C570       C1432   1.481       .  S
C571        H576   1.088       .  S
C571        C572   1.356       .  D
C572       C1444   1.482       .  S
C577        C578   1.551       .  S
C577        C583   1.535       .  S
C577        C581   1.549       .  S
C577       C1456   1.557       .  S
C578        H585   1.085       .  S
C578        C579   1.384       .  D
C579        C580   1.554       .  S
C579       C1660   1.528       .  S
C580        C584   1.534       .  S
C580        C582   1.540       .  S
C580        H586   1.103       .  S
C581        H587   1.080       .  S
C581        C582   1.362       .  D
C582       C1417   1.484       .  S
C583        H588   1.087       .  S
C583        C584   1.359       .  D
C584       C2548   1.481       .  S
C589        C590   1.538       .  S
C589        C595   1.536       .  S
C589        C593   1.554       .  S
C589       C1516   1.541       .  S
C590        H597   1.087       .  S
C590        C591   1.360       .  D
C591        C592   1.537       .  S
C591       C1636   1.484       .  S
C592        C596   1.526       .  S
C592        C594   1.542       .  S
C592        H598   1.108       .  S
C593        H599   1.076       .  S
C593        C594   1.380       .  D
C594       C1420   1.499       .  S
C595        H600   1.087       .  S
C595        C596   1.354       .  D
C596       C1405   1.472       .  S
In601       O603   2.233       .  S
In601       O604   2.250       .  S
In601       O612   2.246       .  S
In601       O606   2.231       .  S
In601       O608   2.258       .  S
In601       O609   2.243       .  S
In601       O610   2.235       .  S
In601       O613   2.236       .  S
C602        O608   1.262       .  A
C602        O610   1.259       .  A
C602       C1381   1.488       .  S
O603        C611   1.261       .  A
O604        C611   1.263       .  A
C605        O612   1.263       .  A
C605        O606   1.262       .  A
C605       C1372   1.481       .  S
C607        O609   1.261       .  A
C607        O613   1.258       .  A
C607       C1408   1.470       .  S
C611       C1393   1.485       .  S
In614       O616   2.258       .  S
In614       O617   2.243       .  S
In614       O625   2.253       .  S
In614       O619   2.229       .  S
In614       O621   2.256       .  S
In614       O622   2.265       .  S
In614       O623   2.239       .  S
In614       O626   2.228       .  S
C615        O621   1.260       .  A
C615        O623   1.260       .  A
C615       C1357   1.488       .  S
O616        C624   1.262       .  A
O617        C624   1.260       .  A
C618        O625   1.263       .  A
C618        O619   1.260       .  A
C618       C1348   1.483       .  S
C620        O622   1.263       .  A
C620        O626   1.260       .  A
C620       C1333   1.488       .  S
C624       C1396   1.486       .  S
In627       O629   2.221       .  S
In627       O630   2.263       .  S
In627       O638   2.250       .  S
In627       O632   2.228       .  S
In627       O634   2.250       .  S
In627       O635   2.249       .  S
In627       O636   2.234       .  S
In627       O639   2.233       .  S
C628        O634   1.262       .  A
C628        O636   1.259       .  A
C628       C1384   1.487       .  S
O629        C637   1.258       .  A
O630        C637   1.264       .  A
C631        O638   1.263       .  A
C631        O632   1.261       .  A
C631       C1309   1.481       .  S
C633        O635   1.264       .  A
C633        O639   1.260       .  A
C633       C1324   1.480       .  S
C637       C1501   1.484       .  S
In640       O642   2.239       .  S
In640       O643   2.269       .  S
In640       O651   2.266       .  S
In640       O645   2.214       .  S
In640       O647   2.262       .  S
In640       O648   2.263       .  S
In640       O649   2.233       .  S
In640       O652   2.221       .  S
C641        O647   1.261       .  A
C641        O649   1.258       .  A
C641       C1360   1.488       .  S
O642        C650   1.258       .  A
O643        C650   1.262       .  A
C644        O651   1.265       .  A
C644        O645   1.262       .  A
C644       C1300   1.489       .  S
C646        O648   1.265       .  A
C646        O652   1.259       .  A
C646       C1321   1.485       .  S
C650       C1285   1.487       .  S
In653       O655   2.246       .  S
In653       O656   2.246       .  S
In653       O664   2.241       .  S
In653       O658   2.219       .  S
In653       O660   2.239       .  S
In653       O661   2.266       .  S
In653       O662   2.226       .  S
In653       O665   2.228       .  S
C654        O660   1.262       .  A
C654        O662   1.260       .  A
C654       C1261   1.479       .  S
O655        C663   1.259       .  A
O656        C663   1.264       .  A
C657        O664   1.264       .  A
C657        O658   1.263       .  A
C657       C1252   1.480       .  S
C659        O661   1.266       .  A
C659        O665   1.259       .  A
C659       C1273   1.487       .  S
C663       C1624   1.480       .  S
In666       O668   2.245       .  S
In666       O669   2.253   1_655  S
In666       O677   2.252       .  S
In666       O671   2.228       .  S
In666       O673   2.259       .  S
In666       O674   2.251   1_655  S
In666       O675   2.237   1_655  S
In666       O678   2.248       .  S
C667        O673   1.259       .  A
C667        O675   1.256   1_655  A
C667       C1240   1.485       .  S
O668        C676   1.259   1_655  A
O669        C676   1.260       .  A
C670        O677   1.264       .  A
C670        O671   1.260       .  A
C670       C1345   1.485       .  S
C672        O674   1.260   1_655  A
C672        O678   1.260       .  A
C672       C1276   1.480   1_655  S
C676       C1225   1.479       .  S
In679       O681   2.263       .  S
In679       O682   2.227       .  S
In679       O690   2.256       .  S
In679       O684   2.220       .  S
In679       O686   2.239       .  S
In679       O687   2.261   1_455  S
In679       O688   2.237       .  S
In679       O691   2.227       .  S
C680        O686   1.260       .  A
C680        O688   1.258       .  A
C680       C1264   1.481       .  S
O681        C689   1.264       .  A
O682        C689   1.259       .  A
C683        O690   1.265       .  A
C683        O684   1.260       .  A
C683       C1312   1.481       .  S
C685        O687   1.262   1_455  A
C685        O691   1.257       .  A
C685       C1588   1.483   1_455  S
C689       C1216   1.482       .  S
In692       O694   2.226       .  S
In692       O695   2.247   1_655  S
In692       O703   2.257       .  S
In692       O697   2.220       .  S
In692       O699   2.259       .  S
In692       O700   2.250   1_655  S
In692       O701   2.223   1_655  S
In692       O704   2.250       .  S
C693        O699   1.262       .  A
C693        O701   1.258   1_655  A
C693       C1237   1.482       .  S
O694        C702   1.260       .  A
O695        C702   1.264   1_455  A
C696        O703   1.264       .  A
C696        O697   1.263       .  A
C696       C1201   1.487       .  S
C698        O700   1.259       .  A
C698        O704   1.259   1_455  A
C698       C1189   1.480       .  S
C702       C1213   1.477   1_655  S
In705       O707   2.223       .  S
In705       O708   2.274   1_565  S
In705       O716   2.261       .  S
In705       O710   2.216       .  S
In705       O712   2.247       .  S
In705       O713   2.260   1_565  S
In705       O714   2.233   1_565  S
In705       O717   2.225       .  S
C706        O712   1.259       .  A
C706        O714   1.258   1_565  A
C706       C1168   1.478       .  S
O707        C715   1.258   1_565  A
O708        C715   1.262       .  A
C709        O716   1.265       .  A
C709        O710   1.260       .  A
C709       C1369   1.483       .  S
C711        O713   1.265       .  A
C711        O717   1.259   1_545  A
C711       C1177   1.482       .  S
C715       C1468   1.489       .  S
In718       O720   2.246       .  S
In718       O721   2.269       .  S
In718       O729   2.266       .  S
In718       O723   2.229       .  S
In718       O725   2.243       .  S
In718       O726   2.249       .  S
In718       O727   2.248       .  S
In718       O730   2.241       .  S
C719        O725   1.262       .  A
C719        O727   1.261       .  A
C719       C1153   1.486       .  S
O720        C728   1.258       .  A
O721        C728   1.263       .  A
C722        O729   1.262       .  A
C722        O723   1.260       .  A
C722       C1204   1.486       .  S
C724        O726   1.263       .  A
C724        O730   1.261       .  A
C724       C1180   1.489       .  S
C728       C1144   1.492       .  S
In731       O733   2.236       .  S
In731       O734   2.269   1_565  S
In731       O742   2.249       .  S
In731       O736   2.208       .  S
In731       O738   2.243       .  S
In731       O739   2.248   1_565  S
In731       O740   2.233       .  S
In731       O743   2.247       .  S
C732        O738   1.260       .  A
C732        O740   1.260       .  A
C732       C1165   1.482       .  S
O733        C741   1.260       .  A
O734        C741   1.264   1_545  A
C735        O742   1.266       .  A
C735        O736   1.261       .  A
C735       C1249   1.478       .  S
C737        O739   1.262       .  A
C737        O743   1.257   1_545  A
C737       C1429   1.480       .  S
C741       C1129   1.490   1_565  S
In744       O746   2.244       .  S
In744       O747   2.261       .  S
In744       O755   2.278       .  S
In744       O749   2.213       .  S
In744       O751   2.242       .  S
In744       O752   2.291       .  S
In744       O753   2.251       .  S
In744       O756   2.225       .  S
C745        O751   1.261       .  A
C745        O753   1.262       .  A
C745       C1156   1.486       .  S
O746        C754   1.259       .  A
O747        C754   1.265       .  A
C748        O755   1.264       .  A
C748        O749   1.258       .  A
C748       C1297   1.485       .  S
C750        O752   1.266       .  A
C750        O756   1.256       .  A
C750       C1117   1.496       .  S
C754       C1132   1.490       .  S
C757        C758   1.546       .  S
C757        C763   1.536       .  S
C757        C761   1.543       .  S
C757       C1093   1.544       .  S
C758        H765   1.083       .  S
C758        C759   1.360       .  D
C759        C760   1.540       .  S
C759       C1081   1.491       .  S
C760        C764   1.538       .  S
C760        C762   1.548       .  S
C760        H766   1.106       .  S
C761        H767   1.085       .  S
C761        C762   1.376       .  D
C762       C1108   1.507       .  S
C763        H768   1.086       .  S
C763        C764   1.363       .  D
C764       C1336   1.480       .  S
C769        C770   1.544       .  S
C769        C775   1.539       .  S
C769        C773   1.533       .  S
C769       C1057   1.551       .  S
C770        H777   1.085       .  S
C770        C771   1.373       .  D
C771        C772   1.552       .  S
C771       C1072   1.498       .  S
C772        C776   1.539       .  S
C772        C774   1.550       .  S
C772        H778   1.110       .  S
C773        H779   1.085       .  S
C773        C774   1.369       .  D
C774       C1912   1.500       .  S
C775        H780   1.083       .  S
C775        C776   1.359       .  D
C776       C1105   1.485       .  S
C781        C782   1.540       .  S
C781        C787   1.540       .  S
C781        C785   1.542       .  S
C781       C1084   1.554       .  S
C782        H789   1.078       .  S
C782        C783   1.355       .  D
C783        C784   1.542       .  S
C783       C1045   1.490       .  S
C784        C788   1.556       .  S
C784        C786   1.550       .  S
C784        H790   1.105       .  S
C785        H791   1.085       .  S
C785        C786   1.376       .  D
C786       C1141   1.510       .  S
C787        H792   1.086       .  S
C787        C788   1.371       .  D
C788       C1033   1.503       .  S
C793        C794   1.550       .  S
C793        C799   1.532       .  S
C793        C797   1.543       .  S
C793       C1021   1.549       .  S
C794        H801   1.084       .  S
C794        C795   1.375       .  D
C795        C796   1.544       .  S
C795       C1048   1.498       .  S
C796        C800   1.534       .  S
C796        C798   1.551       .  S
C796        H802   1.108   1_545  S
C797        H803   1.084       .  S
C797        C798   1.367       .  D
C798       C1060   1.504   1_545  S
C799        H804   1.087       .  S
C799        C800   1.361       .  D
C800       C2224   1.484       .  S
C805        C806   1.537       .  S
C805        C811   1.540       .  S
C805        C809   1.561       .  S
C805       C1036   1.564       .  S
C806        H813   1.086       .  S
C806        C807   1.362       .  D
C807        C808   1.538       .  S
C807        C997   1.480       .  S
C808        C812   1.538       .  S
C808        C810   1.542       .  S
C808        H814   1.100       .  S
C809        H815   1.076       .  S
C809        C810   1.386       .  D
C810       C1012   1.518       .  S
C811        H816   1.087       .  S
C811        C812   1.365       .  D
C812       C1120   1.501       .  S
C817        C818   1.539       .  S
C817        C823   1.536       .  S
C817        C821   1.551       .  S
C817        C988   1.544       .  S
C818        H825   1.084       .  S
C818        C819   1.369   1_545  D
C819        C820   1.548       .  S
C819        C973   1.504       .  S
C820        C824   1.529   1_565  S
C820        C822   1.540   1_565  S
C820        H826   1.110       .  S
C821        H827   1.082       .  S
C821        C822   1.370       .  D
C822       C1009   1.486   1_545  S
C823        H828   1.087       .  S
C823        C824   1.359       .  D
C824       C2116   1.474       .  S
C829        C830   1.539       .  S
C829        C835   1.543       .  S
C829        C833   1.543       .  S
C829       C1096   1.541       .  S
C830        H837   1.085       .  S
C830        C831   1.372       .  D
C831        C832   1.541       .  S
C831        C961   1.497       .  S
C832        C836   1.533       .  S
C832        C834   1.530       .  S
C832        H838   1.110       .  S
C833        H839   1.081       .  S
C833        C834   1.364       .  D
C834        C949   1.477       .  S
C835        H840   1.086       .  S
C835        C836   1.362       .  D
C836       C1288   1.479       .  S
C841        C842   1.547       .  S
C841        C847   1.537       .  S
C841        C845   1.549       .  S
C841        C985   1.550       .  S
C842        H849   1.071       .  S
C842        C843   1.370       .  D
C843        C844   1.537       .  S
C843        C964   1.493       .  S
C844        C848   1.536       .  S
C844        C846   1.543       .  S
C844        H850   1.107       .  S
C845        H851   1.086       .  S
C845        C846   1.372       .  D
C846        C937   1.505       .  S
C847        H852   1.087       .  S
C847        C848   1.356       .  D
C848       C2008   1.479       .  S
C853        C854   1.555       .  S
C853        C859   1.536       .  S
C853        C857   1.532       .  S
C853        C916   1.544       .  S
C854        H861   1.079       .  S
C854        C855   1.381       .  D
C855        C856   1.550       .  S
C855        C925   1.517       .  S
C856        C860   1.530       .  S
C856        C858   1.544       .  S
C856        H862   1.108       .  S
C857        H863   1.086       .  S
C857        C858   1.359       .  D
C858       C1000   1.479       .  S
C859        H864   1.087       .  S
C859        C860   1.359       .  D
C860       C1228   1.477       .  S
C865        C866   1.555       .  S
C865        C871   1.529       .  S
C865        C869   1.543   1_655  S
C865       C1069   1.554       .  S
C866        H873   1.083       .  S
C866        C867   1.376   1_655  D
C867        C868   1.543       .  S
C867        C928   1.493       .  S
C868        C872   1.533       .  S
C868        C870   1.546       .  S
C868        H874   1.103       .  S
C869        H875   1.085       .  S
C869        C870   1.377       .  D
C870        C976   1.514       .  S
C871        H876   1.087       .  S
C871        C872   1.357   1_655  D
C872       C2065   1.483       .  S
C877        C878   1.540       .  S
C877        C883   1.536       .  S
C877        C881   1.551       .  S
C877        C913   1.548       .  S
C878        H885   1.087       .  S
C878        C879   1.365       .  D
C879        C880   1.535       .  S
C879        C952   1.480       .  S
C880        C884   1.535       .  S
C880        C882   1.535       .  S
C880        H886   1.111       .  S
C881        H887   1.077       .  S
C881        C882   1.374       .  D
C882        C901   1.491       .  S
C883        H888   1.087       .  S
C883        C884   1.361       .  D
C884       C1192   1.485       .  S
C889        C890   1.527       .  S
C889        C895   1.536   1_455  S
C889        C893   1.533       .  S
C889       C1960   1.538       .  S
C890        H897   1.087       .  S
C890        C891   1.360       .  D
C891        C892   1.548       .  S
C891        C904   1.489       .  S
C892        C896   1.554   1_455  S
C892        C894   1.556       .  S
C892        H898   1.106       .  S
C893        H899   1.085       .  S
C893        C894   1.375       .  D
C894        C940   1.512       .  S
C895        H900   1.081       .  S
C895        C896   1.363       .  D
C896       C1024   1.488       .  S
C901        C902   1.407       .  A
C901        C906   1.411       .  A
C902        C903   1.405       .  A
C902        H907   1.084       .  S
C903        C904   1.411       .  A
C903        C910   1.442       .  S
C904        C905   1.406       .  A
C905        C906   1.399       .  A
C905        H908   1.085       .  S
C906        C909   1.443       .  S
C909        N911   1.157   1_455  T
C910        N912   1.157       .  T
C913        C914   1.410       .  A
C913        C918   1.424       .  A
C914        C915   1.396       .  A
C914        H919   1.085       .  S
C915        C916   1.419       .  A
C915        C922   1.446       .  S
C916        C917   1.410       .  A
C917        C918   1.411       .  A
C917        H920   1.079       .  S
C918        C921   1.440       .  S
C921        N923   1.158       .  T
C922        N924   1.157       .  T
C925        C926   1.412       .  A
C925        C930   1.425       .  A
C926        C927   1.406       .  A
C926        H931   1.081       .  S
C927        C928   1.408       .  A
C927        C934   1.444       .  S
C928        C929   1.400       .  A
C929        C930   1.409       .  A
C929        H932   1.085   1_455  S
C930        C933   1.443       .  S
C933        N935   1.157       .  T
C934        N936   1.157       .  T
C937        C938   1.410       .  A
C937        C942   1.413       .  A
C938        C939   1.410       .  A
C938        H943   1.084       .  S
C939        C940   1.418       .  A
C939        C946   1.441       .  S
C940        C941   1.409       .  A
C941        C942   1.398       .  A
C941        H944   1.083       .  S
C942        C945   1.441       .  S
C945        N947   1.157       .  T
C946        N948   1.158       .  T
C949        C950   1.402       .  A
C949        C954   1.409       .  A
C950        C951   1.401       .  A
C950        H955   1.085       .  S
C951        C952   1.411       .  A
C951        C958   1.443       .  S
C952        C953   1.403       .  A
C953        C954   1.396       .  A
C953        H956   1.085       .  S
C954        C957   1.444       .  S
C957        N959   1.157       .  T
C958        N960   1.157       .  T
C961        C962   1.406       .  A
C961        C966   1.416       .  A
C962        C963   1.400       .  A
C962        H967   1.082       .  S
C963        C964   1.413       .  A
C963        C970   1.444       .  S
C964        C965   1.404       .  A
C965        C966   1.401       .  A
C965        H968   1.084       .  S
C966        C969   1.444       .  S
C969        N971   1.157       .  T
C970        N972   1.157       .  T
C973        C974   1.403       .  A
C973        C978   1.418       .  A
C974        C975   1.403       .  A
C974        H979   1.082       .  S
C975        C976   1.422       .  A
C975        C982   1.439       .  S
C976        C977   1.409       .  A
C977        C978   1.402       .  A
C977        H980   1.084       .  S
C978        C981   1.443       .  S
C981        N983   1.157   1_565  T
C982        N984   1.157       .  T
C985        C986   1.408       .  A
C985        C990   1.428       .  A
C986        C987   1.394       .  A
C986        H991   1.086       .  S
C987        C988   1.418       .  A
C987        C994   1.444       .  S
C988        C989   1.409       .  A
C989        C990   1.412       .  A
C989        H992   1.078       .  S
C990        C993   1.440       .  S
C993        N995   1.158       .  T
C994        N996   1.157       .  T
C997        C998   1.403       .  A
C997       C1002   1.407       .  A
C998        C999   1.401       .  A
C998       H1003   1.085       .  S
C999       C1000   1.408       .  A
C999       C1006   1.444       .  S
C1000      C1001   1.404       .  A
C1001      C1002   1.404       .  A
C1001      H1004   1.084       .  S
C1002      C1005   1.443       .  S
C1005      N1007   1.157       .  T
C1006      N1008   1.157       .  T
C1009      C1010   1.393       .  A
C1009      C1014   1.408   1_565  A
C1010      C1011   1.401       .  A
C1010      H1015   1.085       .  S
C1011      C1012   1.430       .  A
C1011      C1018   1.441       .  S
C1012      C1013   1.413       .  A
C1013      C1014   1.407   1_565  A
C1013      H1016   1.083   1_565  S
C1014      C1017   1.443       .  S
C1017      N1019   1.157       .  T
C1018      N1020   1.157       .  T
C1021      C1022   1.417       .  A
C1021      C1026   1.425       .  A
C1022      C1023   1.402       .  A
C1022      H1027   1.080       .  S
C1023      C1024   1.406       .  A
C1023      C1030   1.445       .  S
C1024      C1025   1.402       .  A
C1025      C1026   1.408       .  A
C1025      H1028   1.086       .  S
C1026      C1029   1.443       .  S
C1029      N1031   1.158       .  T
C1030      N1032   1.157   1_655  T
C1033      C1034   1.405       .  A
C1033      C1038   1.408       .  A
C1034      C1035   1.419       .  A
C1034      H1039   1.085       .  S
C1035      C1036   1.428       .  A
C1035      C1042   1.439       .  S
C1036      C1037   1.416       .  A
C1037      C1038   1.402       .  A
C1037      H1040   1.085       .  S
C1038      C1041   1.444       .  S
C1041      N1043   1.157       .  T
C1042      N1044   1.158       .  T
C1045      C1046   1.401       .  A
C1045      C1050   1.414   1_565  A
C1046      C1047   1.407   1_565  A
C1046      H1051   1.085       .  S
C1047      C1048   1.418       .  A
C1047      C1054   1.441       .  S
C1048      C1049   1.402       .  A
C1049      C1050   1.402       .  A
C1049      H1052   1.085       .  S
C1050      C1053   1.441   1_545  S
C1053      N1055   1.156       .  T
C1054      N1056   1.157       .  T
C1057      C1058   1.416       .  A
C1057      C1062   1.419       .  A
C1058      C1059   1.402       .  A
C1058      H1063   1.079       .  S
C1059      C1060   1.410       .  A
C1059      C1066   1.442       .  S
C1060      C1061   1.410       .  A
C1061      C1062   1.408       .  A
C1061      H1064   1.085       .  S
C1062      C1065   1.444       .  S
C1065      N1067   1.157       .  T
C1066      N1068   1.157       .  T
C1069      C1070   1.415       .  A
C1069      C1074   1.427       .  A
C1070      C1071   1.416       .  A
C1070      H1075   1.080       .  S
C1071      C1072   1.412       .  A
C1071      C1078   1.443       .  S
C1072      C1073   1.398       .  A
C1073      C1074   1.401       .  A
C1073      H1076   1.086       .  S
C1074      C1077   1.445       .  S
C1077      N1079   1.157       .  T
C1078      N1080   1.157       .  T
C1081      C1082   1.404       .  A
C1081      C1086   1.405       .  A
C1082      C1083   1.408       .  A
C1082      H1087   1.085       .  S
C1083      C1084   1.422       .  A
C1083      C1090   1.443       .  S
C1084      C1085   1.417       .  A
C1085      C1086   1.400       .  A
C1085      H1088   1.074       .  S
C1086      C1089   1.444       .  S
C1089      N1091   1.157       .  T
C1090      N1092   1.157       .  T
C1093      C1094   1.410       .  A
C1093      C1098   1.419       .  A
C1094      C1095   1.402       .  A
C1094      H1099   1.080       .  S
C1095      C1096   1.420       .  A
C1095      C1102   1.442       .  S
C1096      C1097   1.407       .  A
C1097      C1098   1.401       .  A
C1097      H1100   1.085       .  S
C1098      C1101   1.442       .  S
C1101      N1103   1.156       .  T
C1102      N1104   1.157       .  T
C1105      C1106   1.399       .  A
C1105      C1110   1.408       .  A
C1106      C1107   1.400       .  A
C1106      H1111   1.085       .  S
C1107      C1108   1.421       .  A
C1107      C1114   1.442       .  S
C1108      C1109   1.412       .  A
C1109      C1110   1.406       .  A
C1109      H1112   1.083       .  S
C1110      C1113   1.442       .  S
C1113      N1115   1.157       .  T
C1114      N1116   1.157       .  T
C1117      C1118   1.407   1_545  A
C1117      C1122   1.418       .  A
C1118      C1119   1.410       .  A
C1118      H1123   1.084       .  S
C1119      C1120   1.417       .  A
C1119      C1126   1.442       .  S
C1120      C1121   1.404   1_565  A
C1121      C1122   1.398       .  A
C1121      H1124   1.085       .  S
C1122      C1125   1.445       .  S
C1125      N1127   1.157       .  T
C1126      N1128   1.157       .  T
C1129      C1130   1.406   1_545  A
C1129      C1134   1.414       .  A
C1130      C1131   1.402       .  A
C1130      H1135   1.085       .  S
C1131      C1132   1.413   1_565  A
C1131      C1138   1.444       .  S
C1132      C1133   1.408       .  A
C1133      C1134   1.406       .  A
C1133      H1136   1.085       .  S
C1134      C1137   1.444       .  S
C1137      N1139   1.157       .  T
C1138      N1140   1.157       .  T
C1141      C1142   1.412       .  A
C1141      C1146   1.419       .  A
C1142      C1143   1.403       .  A
C1142      H1147   1.083       .  S
C1143      C1144   1.410   1_565  A
C1143      C1150   1.444       .  S
C1144      C1145   1.405       .  A
C1145      C1146   1.404   1_545  A
C1145      H1148   1.085       .  S
C1146      C1149   1.442       .  S
C1149      N1151   1.158   1_565  T
C1150      N1152   1.157       .  T
C1153      C1154   1.404       .  A
C1153      C1158   1.415       .  A
C1154      C1155   1.400       .  A
C1154      H1159   1.085       .  S
C1155      C1156   1.415       .  A
C1155      C1162   1.444       .  S
C1156      C1157   1.406       .  A
C1157      C1158   1.403       .  A
C1157      H1160   1.085       .  S
C1158      C1161   1.444       .  S
C1161      N1163   1.157   1_545  T
C1162      N1164   1.157       .  T
C1165      C1166   1.404   1_565  A
C1165      C1170   1.415       .  A
C1166      C1167   1.397       .  A
C1166      H1171   1.085       .  S
C1167      C1168   1.412   1_545  A
C1167      C1174   1.445       .  S
C1168      C1169   1.404       .  A
C1169      C1170   1.400       .  A
C1169      H1172   1.085       .  S
C1170      C1173   1.444       .  S
C1173      N1175   1.157       .  T
C1174      N1176   1.157       .  T
C1177      C1178   1.404   1_545  A
C1177      C1182   1.412       .  A
C1178      C1179   1.400       .  A
C1178      H1183   1.085       .  S
C1179      C1180   1.415   1_565  A
C1179      C1186   1.444       .  S
C1180      C1181   1.408       .  A
C1181      C1182   1.403       .  A
C1181      H1184   1.085       .  S
C1182      C1185   1.444       .  S
C1185      N1187   1.157       .  T
C1186      N1188   1.157       .  T
C1189      C1190   1.402       .  A
C1189      C1194   1.414       .  A
C1190      C1191   1.401       .  A
C1190      H1195   1.085       .  S
C1191      C1192   1.411       .  A
C1191      C1198   1.441       .  S
C1192      C1193   1.404       .  A
C1193      C1194   1.401       .  A
C1193      H1196   1.085       .  S
C1194      C1197   1.445       .  S
C1197      N1199   1.157       .  T
C1198      N1200   1.157       .  T
C1201      C1202   1.404       .  A
C1201      C1206   1.417       .  A
C1202      C1203   1.396       .  A
C1202      H1207   1.085       .  S
C1203      C1204   1.413       .  A
C1203      C1210   1.444       .  S
C1204      C1205   1.407       .  A
C1205      C1206   1.406       .  A
C1205      H1208   1.085       .  S
C1206      C1209   1.444       .  S
C1209      N1211   1.158       .  T
C1210      N1212   1.157       .  T
C1213      C1214   1.404   1_455  A
C1213      C1218   1.410       .  A
C1214      C1215   1.401       .  A
C1214      H1219   1.085       .  S
C1215      C1216   1.413   1_655  A
C1215      C1222   1.444       .  S
C1216      C1217   1.406       .  A
C1217      C1218   1.400       .  A
C1217      H1220   1.085       .  S
C1218      C1221   1.444       .  S
C1221      N1223   1.157       .  T
C1222      N1224   1.157       .  T
C1225      C1226   1.405       .  A
C1225      C1230   1.413       .  A
C1226      C1227   1.401       .  A
C1226      H1231   1.085       .  S
C1227      C1228   1.408       .  A
C1227      C1234   1.443       .  S
C1228      C1229   1.401       .  A
C1229      C1230   1.401       .  A
C1229      H1232   1.085       .  S
C1230      C1233   1.444   1_455  S
C1233      N1235   1.157       .  T
C1234      N1236   1.157       .  T
C1237      C1238   1.404   1_655  A
C1237      C1242   1.413       .  A
C1238      C1239   1.396       .  A
C1238      H1243   1.085       .  S
C1239      C1240   1.415   1_455  A
C1239      C1246   1.445       .  S
C1240      C1241   1.407       .  A
C1241      C1242   1.403       .  A
C1241      H1244   1.084       .  S
C1242      C1245   1.444       .  S
C1245      N1247   1.157       .  T
C1246      N1248   1.157       .  T
C1249      C1250   1.404       .  A
C1249      C1254   1.413       .  A
C1250      C1251   1.402       .  A
C1250      H1255   1.085       .  S
C1251      C1252   1.415       .  A
C1251      C1258   1.444       .  S
C1252      C1253   1.403       .  A
C1253      C1254   1.396       .  A
C1253      H1256   1.085       .  S
C1254      C1257   1.445       .  S
C1257      N1259   1.157       .  T
C1258      N1260   1.157       .  T
C1261      C1262   1.405       .  A
C1261      C1266   1.412       .  A
C1262      C1263   1.398       .  A
C1262      H1267   1.085       .  S
C1263      C1264   1.415       .  A
C1263      C1270   1.445   1_455  S
C1264      C1265   1.405       .  A
C1265      C1266   1.398       .  A
C1265      H1268   1.085       .  S
C1266      C1269   1.444       .  S
C1269      N1271   1.157       .  T
C1270      N1272   1.158       .  T
C1273      C1274   1.405       .  A
C1273      C1278   1.417       .  A
C1274      C1275   1.404   1_455  A
C1274      H1279   1.084   1_455  S
C1275      C1276   1.412   1_655  A
C1275      C1282   1.444       .  S
C1276      C1277   1.402       .  A
C1277      C1278   1.400       .  A
C1277      H1280   1.085       .  S
C1278      C1281   1.445       .  S
C1281      N1283   1.157       .  T
C1282      N1284   1.157       .  T
C1285      C1286   1.407       .  A
C1285      C1290   1.416       .  A
C1286      C1287   1.403       .  A
C1286      H1291   1.084       .  S
C1287      C1288   1.409       .  A
C1287      C1294   1.444       .  S
C1288      C1289   1.399       .  A
C1289      C1290   1.401       .  A
C1289      H1292   1.084       .  S
C1290      C1293   1.444       .  S
C1293      N1295   1.157       .  T
C1294      N1296   1.157       .  T
C1297      C1298   1.406       .  A
C1297      C1302   1.413       .  A
C1298      C1299   1.409       .  A
C1298      H1303   1.084       .  S
C1299      C1300   1.417       .  A
C1299      C1306   1.444       .  S
C1300      C1301   1.404       .  A
C1301      C1302   1.395       .  A
C1301      H1304   1.085       .  S
C1302      C1305   1.445       .  S
C1305      N1307   1.157       .  T
C1306      N1308   1.158       .  T
C1309      C1310   1.405       .  A
C1309      C1314   1.412       .  A
C1310      C1311   1.403       .  A
C1310      H1315   1.085       .  S
C1311      C1312   1.413       .  A
C1311      C1318   1.443       .  S
C1312      C1313   1.405       .  A
C1313      C1314   1.398       .  A
C1313      H1316   1.085       .  S
C1314      C1317   1.445       .  S
C1317      N1319   1.157       .  T
C1318      N1320   1.157       .  T
C1321      C1322   1.407       .  A
C1321      C1326   1.414       .  A
C1322      C1323   1.399       .  A
C1322      H1327   1.085       .  S
C1323      C1324   1.411       .  A
C1323      C1330   1.445       .  S
C1324      C1325   1.405       .  A
C1325      C1326   1.403       .  A
C1325      H1328   1.085       .  S
C1326      C1329   1.444       .  S
C1329      N1331   1.157       .  T
C1330      N1332   1.157       .  T
C1333      C1334   1.405       .  A
C1333      C1338   1.417       .  A
C1334      C1335   1.396       .  A
C1334      H1339   1.085       .  S
C1335      C1336   1.409       .  A
C1335      C1342   1.444       .  S
C1336      C1337   1.400       .  A
C1337      C1338   1.407       .  A
C1337      H1340   1.085       .  S
C1338      C1341   1.442       .  S
C1341      N1343   1.157       .  T
C1342      N1344   1.157       .  T
C1345      C1346   1.405       .  A
C1345      C1350   1.414       .  A
C1346      C1347   1.399       .  A
C1346      H1351   1.085       .  S
C1347      C1348   1.414       .  A
C1347      C1354   1.445       .  S
C1348      C1349   1.405       .  A
C1349      C1350   1.402       .  A
C1349      H1352   1.085       .  S
C1350      C1353   1.443       .  S
C1353      N1355   1.157       .  T
C1354      N1356   1.158       .  T
C1357      C1358   1.404       .  A
C1357      C1362   1.416       .  A
C1358      C1359   1.398       .  A
C1358      H1363   1.085       .  S
C1359      C1360   1.415       .  A
C1359      C1366   1.445       .  S
C1360      C1361   1.406       .  A
C1361      C1362   1.404       .  A
C1361      H1364   1.085       .  S
C1362      C1365   1.444       .  S
C1365      N1367   1.157       .  T
C1366      N1368   1.157       .  T
C1369      C1370   1.405       .  A
C1369      C1374   1.413       .  A
C1370      C1371   1.398       .  A
C1370      H1375   1.085       .  S
C1371      C1372   1.412       .  A
C1371      C1378   1.445       .  S
C1372      C1373   1.405       .  A
C1373      C1374   1.403       .  A
C1373      H1376   1.085       .  S
C1374      C1377   1.443       .  S
C1377      N1379   1.157       .  T
C1378      N1380   1.157       .  T
C1381      C1382   1.406       .  A
C1381      C1386   1.414       .  A
C1382      C1383   1.399       .  A
C1382      H1387   1.085       .  S
C1383      C1384   1.416       .  A
C1383      C1390   1.445       .  S
C1384      C1385   1.406       .  A
C1385      C1386   1.402       .  A
C1385      H1388   1.085       .  S
C1386      C1389   1.443       .  S
C1389      N1391   1.157       .  T
C1390      N1392   1.158       .  T
C1393      C1394   1.405       .  A
C1393      C1398   1.414       .  A
C1394      C1395   1.401       .  A
C1394      H1399   1.085       .  S
C1395      C1396   1.414       .  A
C1395      C1402   1.444       .  S
C1396      C1397   1.406       .  A
C1397      C1398   1.403       .  A
C1397      H1400   1.085       .  S
C1398      C1401   1.444       .  S
C1401      N1403   1.157       .  T
C1402      N1404   1.157       .  T
C1405      C1406   1.400       .  A
C1405      C1410   1.410       .  A
C1406      C1407   1.401       .  A
C1406      H1411   1.085       .  S
C1407      C1408   1.412       .  A
C1407      C1414   1.443       .  S
C1408      C1409   1.402       .  A
C1409      C1410   1.396       .  A
C1409      H1412   1.085       .  S
C1410      C1413   1.445       .  S
C1413      N1415   1.157       .  T
C1414      N1416   1.157       .  T
C1417      C1418   1.392       .  A
C1417      C1422   1.410       .  A
C1418      C1419   1.397       .  A
C1418      H1423   1.083       .  S
C1419      C1420   1.419       .  A
C1419      C1426   1.442       .  S
C1420      C1421   1.410       .  A
C1421      C1422   1.407       .  A
C1421      H1424   1.084       .  S
C1422      C1425   1.443       .  S
C1425      N1427   1.157       .  T
C1426      N1428   1.157       .  T
C1429      C1430   1.403       .  A
C1429      C1434   1.415       .  A
C1430      C1431   1.397       .  A
C1430      H1435   1.085       .  S
C1431      C1432   1.411       .  A
C1431      C1438   1.445       .  S
C1432      C1433   1.402       .  A
C1433      C1434   1.404       .  A
C1433      H1436   1.084       .  S
C1434      C1437   1.444   1_545  S
C1437      N1439   1.157       .  T
C1438      N1440   1.157       .  T
C1441      C1442   1.414       .  A
C1441      C1446   1.416       .  A
C1442      C1443   1.394       .  A
C1442      H1447   1.083       .  S
C1443      C1444   1.404       .  A
C1443      C1450   1.446       .  S
C1444      C1445   1.406       .  A
C1445      C1446   1.412       .  A
C1445      H1448   1.084       .  S
C1446      C1449   1.441   1_545  S
C1449      N1451   1.157       .  T
C1450      N1452   1.157       .  T
C1453      C1454   1.415       .  A
C1453      C1458   1.424       .  A
C1454      C1455   1.405       .  A
C1454      H1459   1.085       .  S
C1455      C1456   1.417       .  A
C1455      C1462   1.445       .  S
C1456      C1457   1.414       .  A
C1457      C1458   1.411       .  A
C1457      H1460   1.076       .  S
C1458      C1461   1.440       .  S
C1461      N1463   1.158       .  T
C1462      N1464   1.157       .  T
C1465      C1466   1.403       .  A
C1465      C1470   1.407       .  A
C1466      C1467   1.408       .  A
C1466      H1471   1.084       .  S
C1467      C1468   1.418       .  A
C1467      C1474   1.443       .  S
C1468      C1469   1.406       .  A
C1469      C1470   1.395       .  A
C1469      H1472   1.085   1_545  S
C1470      C1473   1.444       .  S
C1473      N1475   1.157   1_545  T
C1474      N1476   1.157       .  T
C1477      C1478   1.408       .  A
C1477      C1482   1.424       .  A
C1478      C1479   1.403       .  A
C1478      H1483   1.083       .  S
C1479      C1480   1.419       .  A
C1479      C1486   1.445       .  S
C1480      C1481   1.405       .  A
C1481      C1482   1.408       .  A
C1481      H1484   1.083       .  S
C1482      C1485   1.443       .  S
C1485      N1487   1.157       .  T
C1486      N1488   1.157       .  T
C1489      C1490   1.407       .  A
C1489      C1494   1.413       .  A
C1490      C1491   1.409       .  A
C1490      H1495   1.083       .  S
C1491      C1492   1.414       .  A
C1491      C1498   1.443   1_545  S
C1492      C1493   1.402       .  A
C1493      C1494   1.399       .  A
C1493      H1496   1.082       .  S
C1494      C1497   1.442       .  S
C1497      N1499   1.157       .  T
C1498      N1500   1.157       .  T
C1501      C1502   1.407       .  A
C1501      C1506   1.416       .  A
C1502      C1503   1.403       .  A
C1502      H1507   1.084       .  S
C1503      C1504   1.408       .  A
C1503      C1510   1.444       .  S
C1504      C1505   1.398       .  A
C1505      C1506   1.398       .  A
C1505      H1508   1.085       .  S
C1506      C1509   1.444       .  S
C1509      N1511   1.157       .  T
C1510      N1512   1.157       .  T
C1513      C1514   1.412       .  A
C1513      C1518   1.416       .  A
C1514      C1515   1.413       .  A
C1514      H1519   1.079       .  S
C1515      C1516   1.420       .  A
C1515      C1522   1.440       .  S
C1516      C1517   1.410       .  A
C1517      C1518   1.386       .  A
C1517      H1520   1.086       .  S
C1518      C1521   1.448       .  S
C1521      N1523   1.157       .  T
C1522      N1524   1.158       .  T
C1525      C1526   1.408       .  A
C1525      C1530   1.421       .  A
C1526      C1527   1.398       .  A
C1526      H1531   1.082       .  S
C1527      C1528   1.417       .  A
C1527      C1534   1.445       .  S
C1528      C1529   1.403       .  A
C1529      C1530   1.398       .  A
C1529      H1532   1.083       .  S
C1530      C1533   1.445       .  S
C1533      N1535   1.158       .  T
C1534      N1536   1.157       .  T
C1537      C1538   1.405       .  A
C1537      C1542   1.412       .  A
C1538      C1539   1.410       .  A
C1538      H1543   1.085       .  S
C1539      C1540   1.416       .  A
C1539      C1546   1.441       .  S
C1540      C1541   1.408       .  A
C1541      C1542   1.405       .  A
C1541      H1544   1.085       .  S
C1542      C1545   1.443       .  S
C1545      N1547   1.157       .  T
C1546      N1548   1.157       .  T
C1549      C1550   1.406       .  A
C1549      C1554   1.415       .  A
C1550      C1551   1.402       .  A
C1550      H1555   1.084       .  S
C1551      C1552   1.412       .  A
C1551      C1558   1.443       .  S
C1552      C1553   1.405       .  A
C1553      C1554   1.399       .  A
C1553      H1556   1.084       .  S
C1554      C1557   1.444       .  S
C1557      N1559   1.157       .  T
C1558      N1560   1.157       .  T
C1561      C1562   1.408       .  A
C1561      C1566   1.421       .  A
C1562      C1563   1.412       .  A
C1562      H1567   1.079       .  S
C1563      C1564   1.427       .  A
C1563      C1570   1.440       .  S
C1564      C1565   1.407       .  A
C1565      C1566   1.397       .  A
C1565      H1568   1.086       .  S
C1566      C1569   1.445       .  S
C1569      N1571   1.157       .  T
C1570      N1572   1.158       .  T
C1573      C1574   1.402       .  A
C1573      C1578   1.411       .  A
C1574      C1575   1.400       .  A
C1574      H1579   1.085       .  S
C1575      C1576   1.409       .  A
C1575      C1582   1.443       .  S
C1576      C1577   1.400       .  A
C1577      C1578   1.401       .  A
C1577      H1580   1.085       .  S
C1578      C1581   1.443       .  S
C1581      N1583   1.157       .  T
C1582      N1584   1.157       .  T
C1585      C1586   1.398       .  A
C1585      C1590   1.410       .  A
C1586      C1587   1.398   1_655  A
C1586      H1591   1.085       .  S
C1587      C1588   1.415   1_455  A
C1587      C1594   1.444       .  S
C1588      C1589   1.407       .  A
C1589      C1590   1.402       .  A
C1589      H1592   1.085       .  S
C1590      C1593   1.444       .  S
C1593      N1595   1.157       .  T
C1594      N1596   1.157       .  T
C1597      C1598   1.401       .  A
C1597      C1602   1.415       .  A
C1598      C1599   1.402       .  A
C1598      H1603   1.084       .  S
C1599      C1600   1.419       .  A
C1599      C1606   1.442       .  S
C1600      C1601   1.408       .  A
C1601      C1602   1.405       .  A
C1601      H1604   1.085       .  S
C1602      C1605   1.444       .  S
C1605      N1607   1.157       .  T
C1606      N1608   1.157       .  T
C1609      C1610   1.410       .  A
C1609      C1614   1.428       .  A
C1610      C1611   1.411       .  A
C1610      H1615   1.084       .  S
C1611      C1612   1.418       .  A
C1611      C1618   1.442       .  S
C1612      C1613   1.401       .  A
C1613      C1614   1.407       .  A
C1613      H1616   1.085       .  S
C1614      C1617   1.440       .  S
C1617      N1619   1.157       .  T
C1618      N1620   1.157       .  T
C1621      C1622   1.403       .  A
C1621      C1626   1.413       .  A
C1622      C1623   1.406   1_655  A
C1622      H1627   1.081   1_655  S
C1623      C1624   1.414       .  A
C1623      C1630   1.443       .  S
C1624      C1625   1.402   1_455  A
C1625      C1626   1.397       .  A
C1625      H1628   1.085       .  S
C1626      C1629   1.445       .  S
C1629      N1631   1.157       .  T
C1630      N1632   1.157       .  T
C1633      C1634   1.415       .  A
C1633      C1638   1.420       .  A
C1634      C1635   1.399       .  A
C1634      H1639   1.076       .  S
C1635      C1636   1.407       .  A
C1635      C1642   1.443       .  S
C1636      C1637   1.402       .  A
C1637      C1638   1.399       .  A
C1637      H1640   1.085       .  S
C1638      C1641   1.444       .  S
C1641      N1643   1.157       .  T
C1642      N1644   1.157       .  T
C1645      C1646   1.416       .  A
C1645      C1650   1.421       .  A
C1646      C1647   1.410       .  A
C1646      H1651   1.082       .  S
C1647      C1648   1.415       .  A
C1647      C1654   1.441       .  S
C1648      C1649   1.413       .  A
C1649      C1650   1.416       .  A
C1649      H1652   1.084       .  S
C1650      C1653   1.443       .  S
C1653      N1655   1.157       .  T
C1654      N1656   1.157       .  T
C1657      C1658   1.396       .  A
C1657      C1662   1.409       .  A
C1658      C1659   1.407       .  A
C1658      H1663   1.086       .  S
C1659      C1660   1.430       .  A
C1659      C1666   1.438       .  S
C1660      C1661   1.416       .  A
C1661      C1662   1.410       .  A
C1661      H1664   1.083       .  S
C1662      C1665   1.443       .  S
C1665      N1667   1.157   1_655  T
C1666      N1668   1.158       .  T
C1669      C1670   1.405       .  A
C1669      C1674   1.413       .  A
C1670      C1671   1.412       .  A
C1670      H1675   1.082       .  S
C1671      C1672   1.413       .  A
C1671      C1678   1.442       .  S
C1672      C1673   1.407       .  A
C1673      C1674   1.408       .  A
C1673      H1676   1.085       .  S
C1674      C1677   1.443       .  S
C1677      N1679   1.157       .  T
C1678      N1680   1.157       .  T
C1681      C1682   1.409       .  A
C1681      C1686   1.408       .  A
C1682      C1683   1.414   1_655  A
C1682      H1687   1.082       .  S
C1683      C1684   1.414   1_455  A
C1683      C1690   1.442       .  S
C1684      C1685   1.412       .  A
C1685      C1686   1.399       .  A
C1685      H1688   1.084       .  S
C1686      C1689   1.445       .  S
C1689      N1691   1.157       .  T
C1690      N1692   1.157       .  T
C1693      C1694   1.402       .  A
C1693      C1698   1.426   1_565  A
C1694      C1695   1.402   1_566  A
C1694      H1699   1.083       .  S
C1695      C1696   1.421       .  A
C1695      C1702   1.446       .  S
C1696      C1697   1.399   1_554  A
C1697      C1698   1.410       .  A
C1697      H1700   1.084       .  S
C1698      C1701   1.443       .  S
C1701      N1703   1.157       .  T
C1702      N1704   1.157       .  T
C1705      C1706   1.415       .  A
C1705      C1710   1.428       .  A
C1706      C1707   1.396       .  A
C1706      H1711   1.085       .  S
C1707      C1708   1.403       .  A
C1707      C1714   1.444   1_565  S
C1708      C1709   1.402       .  A
C1709      C1710   1.414       .  A
C1709      H1712   1.083       .  S
C1710      C1713   1.439       .  S
C1713      N1715   1.158       .  T
C1714      N1716   1.157       .  T
C1717      C1718   1.408       .  A
C1717      C1722   1.413       .  A
C1718      C1719   1.407       .  A
C1718      H1723   1.084       .  S
C1719      C1720   1.421       .  A
C1719      C1726   1.444       .  S
C1720      C1721   1.414       .  A
C1721      C1722   1.400       .  A
C1721      H1724   1.076       .  S
C1722      C1725   1.443       .  S
C1725      N1727   1.157       .  T
C1726      N1728   1.157   1_554  T
C1729      C1730   1.413   1_554  A
C1729      C1734   1.425       .  A
C1730      C1731   1.405       .  A
C1730      H1735   1.082       .  S
C1731      C1732   1.409   1_545  A
C1731      C1738   1.441       .  S
C1732      C1733   1.399   1_556  A
C1733      C1734   1.402   1_565  A
C1733      H1736   1.086       .  S
C1734      C1737   1.441       .  S
C1737      N1739   1.157   1_545  T
C1738      N1740   1.157       .  T
C1741      C1742   1.411       .  A
C1741      C1746   1.417       .  A
C1742      C1743   1.413       .  A
C1742      H1747   1.078   1_554  S
C1743      C1744   1.424       .  A
C1743      C1750   1.439   1_554  S
C1744      C1745   1.411       .  A
C1745      C1746   1.393       .  A
C1745      H1748   1.085       .  S
C1746      C1749   1.446       .  S
C1749      N1751   1.157       .  T
C1750      N1752   1.158       .  T
C1753      C1754   1.395       .  A
C1753      C1758   1.410       .  A
C1754      C1755   1.398   1_556  A
C1754      H1759   1.086       .  S
C1755      C1756   1.422   1_554  A
C1755      C1762   1.440       .  S
C1756      C1757   1.410       .  A
C1757      C1758   1.407       .  A
C1757      H1760   1.084   1_455  S
C1758      C1761   1.441       .  S
C1761      N1763   1.156       .  T
C1762      N1764   1.157       .  T
C1765      C1766   1.401       .  A
C1765      C1770   1.412       .  A
C1766      C1767   1.404       .  A
C1766      H1771   1.085       .  S
C1767      C1768   1.415       .  A
C1767      C1774   1.443       .  S
C1768      C1769   1.406       .  A
C1769      C1770   1.410       .  A
C1769      H1772   1.084       .  S
C1770      C1773   1.444       .  S
C1773      N1775   1.157       .  T
C1774      N1776   1.157       .  T
C1777      C1778   1.399       .  A
C1777      C1782   1.421       .  A
C1778      C1779   1.407       .  A
C1778      H1783   1.075       .  S
C1779      C1780   1.423       .  A
C1779      C1786   1.444       .  S
C1780      C1781   1.408       .  A
C1781      C1782   1.406       .  A
C1781      H1784   1.083       .  S
C1782      C1785   1.444       .  S
C1785      N1787   1.157       .  T
C1786      N1788   1.157       .  T
C1789      C1790   1.409       .  A
C1789      C1794   1.423       .  A
C1790      C1791   1.407       .  A
C1790      H1795   1.081       .  S
C1791      C1792   1.420       .  A
C1791      C1798   1.444   1_554  S
C1792      C1793   1.403       .  A
C1793      C1794   1.398       .  A
C1793      H1796   1.081       .  S
C1794      C1797   1.446       .  S
C1797      N1799   1.157   1_655  T
C1798      N1800   1.158       .  T
C1801      C1802   1.411       .  A
C1801      C1806   1.403   1_554  A
C1802      C1803   1.404   1_554  A
C1802      H1807   1.085       .  S
C1803      C1804   1.413       .  A
C1803      C1810   1.439   1_556  S
C1804      C1805   1.421       .  A
C1805      C1806   1.405       .  A
C1805      H1808   1.083       .  S
C1806      C1809   1.441   1_455  S
C1809      N1811   1.157       .  T
C1810      N1812   1.158       .  T
C1813      C1814   1.414       .  A
C1813      C1818   1.431       .  A
C1814      C1815   1.404       .  A
C1814      H1819   1.085       .  S
C1815      C1816   1.415       .  A
C1815      C1822   1.444       .  S
C1816      C1817   1.407       .  A
C1817      C1818   1.424       .  A
C1817      H1820   1.085       .  S
C1818      C1821   1.439   1_554  S
C1821      N1823   1.158       .  T
C1822      N1824   1.157       .  T
C1825      C1826   1.416       .  A
C1825      C1830   1.429       .  A
C1826      C1827   1.420       .  A
C1826      H1831   1.081       .  S
C1827      C1828   1.413       .  A
C1827      C1834   1.442       .  S
C1828      C1829   1.397       .  A
C1829      C1830   1.401       .  A
C1829      H1832   1.086       .  S
C1830      C1833   1.446       .  S
C1833      N1835   1.157       .  T
C1834      N1836   1.157       .  T
C1837      C1838   1.413       .  A
C1837      C1842   1.425       .  A
C1838      C1839   1.415       .  A
C1838      H1843   1.084       .  S
C1839      C1840   1.413       .  A
C1839      C1846   1.442       .  S
C1840      C1841   1.399       .  A
C1841      C1842   1.405       .  A
C1841      H1844   1.086       .  S
C1842      C1845   1.441       .  S
C1845      N1847   1.157       .  T
C1846      N1848   1.157   1_556  T
C1849      C1850   1.409       .  A
C1849      C1854   1.422       .  A
C1850      C1851   1.408       .  A
C1850      H1855   1.083       .  S
C1851      C1852   1.421       .  A
C1851      C1858   1.443       .  S
C1852      C1853   1.409       .  A
C1853      C1854   1.410       .  A
C1853      H1856   1.079       .  S
C1854      C1857   1.444       .  S
C1857      N1859   1.157       .  T
C1858      N1860   1.157       .  T
C1861      C1862   1.402       .  A
C1861      C1866   1.412       .  A
C1862      C1863   1.401       .  A
C1862      H1867   1.085       .  S
C1863      C1864   1.410       .  A
C1863      C1870   1.444       .  S
C1864      C1865   1.402       .  A
C1865      C1866   1.404       .  A
C1865      H1868   1.085       .  S
C1866      C1869   1.444       .  S
C1869      N1871   1.157       .  T
C1870      N1872   1.157       .  T
C1873      C1874   1.416       .  A
C1873      C1878   1.428       .  A
C1874      C1875   1.417       .  A
C1874      H1879   1.081   1_554  S
C1875      C1876   1.411       .  A
C1875      C1882   1.442   1_554  S
C1876      C1877   1.400       .  A
C1877      C1878   1.406       .  A
C1877      H1880   1.085       .  S
C1878      C1881   1.445       .  S
C1881      N1883   1.157       .  T
C1882      N1884   1.157       .  T
C1885      C1886   1.403       .  A
C1885      C1890   1.416       .  A
C1886      C1887   1.409       .  A
C1886      H1891   1.084       .  S
C1887      C1888   1.419       .  A
C1887      C1894   1.442       .  S
C1888      C1889   1.408       .  A
C1889      C1890   1.409       .  A
C1889      H1892   1.084   1_554  S
C1890      C1893   1.444   1_554  S
C1893      N1895   1.157       .  T
C1894      N1896   1.157       .  T
C1897      C1898   1.411   1_556  A
C1897      C1902   1.418       .  A
C1898      C1899   1.408   1_554  A
C1898      H1903   1.084       .  S
C1899      C1900   1.414       .  A
C1899      C1906   1.443   1_556  S
C1900      C1901   1.408       .  A
C1901      C1902   1.412       .  A
C1901      H1904   1.085       .  S
C1902      C1905   1.442       .  S
C1905      N1907   1.157       .  T
C1906      N1908   1.157       .  T
C1909      C1910   1.401       .  A
C1909      C1914   1.417       .  A
C1910      C1911   1.402       .  A
C1910      H1915   1.085       .  S
C1911      C1912   1.421       .  A
C1911      C1918   1.444       .  S
C1912      C1913   1.405       .  A
C1913      C1914   1.405       .  A
C1913      H1916   1.084       .  S
C1914      C1917   1.445       .  S
C1917      N1919   1.158       .  T
C1918      N1920   1.157       .  T
C1921      C1922   1.408       .  A
C1921      C1926   1.417       .  A
C1922      C1923   1.399       .  A
C1922      H1927   1.084       .  S
C1923      C1924   1.409       .  A
C1923      C1930   1.445       .  S
C1924      C1925   1.403       .  A
C1925      C1926   1.409       .  A
C1925      H1928   1.084       .  S
C1926      C1929   1.443       .  S
C1929      N1931   1.157       .  T
C1930      N1932   1.157       .  T
C1933      C1934   1.407       .  A
C1933      C1938   1.412       .  A
C1934      C1935   1.400       .  A
C1934      H1939   1.085       .  S
C1935      C1936   1.413       .  A
C1935      C1942   1.444       .  S
C1936      C1937   1.409       .  A
C1937      C1938   1.405       .  A
C1937      H1940   1.085       .  S
C1938      C1941   1.443       .  S
C1941      N1943   1.157       .  T
C1942      N1944   1.157       .  T
C1945      C1946   1.405       .  A
C1945      C1950   1.412       .  A
C1946      C1947   1.402   1_455  A
C1946      H1951   1.084       .  S
C1947      C1948   1.408       .  A
C1947      C1954   1.442       .  S
C1948      C1949   1.401   1_655  A
C1949      C1950   1.396       .  A
C1949      H1952   1.085       .  S
C1950      C1953   1.445       .  S
C1953      N1955   1.157       .  T
C1954      N1956   1.157       .  T
C1957      C1958   1.398   1_655  A
C1957      C1962   1.411       .  A
C1958      C1959   1.400       .  A
C1958      H1963   1.085       .  S
C1959      C1960   1.424       .  A
C1959      C1966   1.445       .  S
C1960      C1961   1.411   1_455  A
C1961      C1962   1.398       .  A
C1961      H1964   1.076       .  S
C1962      C1965   1.447       .  S
C1965      N1967   1.158       .  T
C1966      N1968   1.157       .  T
C1969      C1970   1.405       .  A
C1969      C1974   1.415       .  A
C1970      C1971   1.400       .  A
C1970      H1975   1.085       .  S
C1971      C1972   1.415       .  A
C1971      C1978   1.444       .  S
C1972      C1973   1.405       .  A
C1973      C1974   1.400       .  A
C1973      H1976   1.085       .  S
C1974      C1977   1.444       .  S
C1977      N1979   1.157       .  T
C1978      N1980   1.157       .  T
C1981      C1982   1.405       .  A
C1981      C1986   1.418       .  A
C1982      C1983   1.400       .  A
C1982      H1987   1.085       .  S
C1983      C1984   1.412       .  A
C1983      C1990   1.445       .  S
C1984      C1985   1.401       .  A
C1985      C1986   1.405       .  A
C1985      H1988   1.085       .  S
C1986      C1989   1.444       .  S
C1989      N1991   1.157       .  T
C1990      N1992   1.157       .  T
C1993      C1994   1.404       .  A
C1993      C1998   1.412       .  A
C1994      C1995   1.401       .  A
C1994      H1999   1.085       .  S
C1995      C1996   1.414       .  A
C1995      C2002   1.444       .  S
C1996      C1997   1.405       .  A
C1997      C1998   1.397       .  A
C1997      H2000   1.085       .  S
C1998      C2001   1.445       .  S
C2001      N2003   1.157       .  T
C2002      N2004   1.157       .  T
C2005      C2006   1.406       .  A
C2005      C2010   1.415       .  A
C2006      C2007   1.400       .  A
C2006      H2011   1.085       .  S
C2007      C2008   1.408       .  A
C2007      C2014   1.444       .  S
C2008      C2009   1.401       .  A
C2009      C2010   1.403       .  A
C2009      H2012   1.085       .  S
C2010      C2013   1.444       .  S
C2013      N2015   1.157       .  T
C2014      N2016   1.157       .  T
C2017      C2018   1.404       .  A
C2017      C2022   1.414       .  A
C2018      C2019   1.396       .  A
C2018      H2023   1.085       .  S
C2019      C2020   1.413       .  A
C2019      C2026   1.445       .  S
C2020      C2021   1.404       .  A
C2021      C2022   1.402       .  A
C2021      H2024   1.085       .  S
C2022      C2025   1.444       .  S
C2025      N2027   1.157       .  T
C2026      N2028   1.157       .  T
C2029      C2030   1.403       .  A
C2029      C2034   1.414       .  A
C2030      C2031   1.403       .  A
C2030      H2035   1.085       .  S
C2031      C2032   1.416       .  A
C2031      C2038   1.444       .  S
C2032      C2033   1.404       .  A
C2033      C2034   1.402       .  A
C2033      H2036   1.085       .  S
C2034      C2037   1.444       .  S
C2037      N2039   1.157       .  T
C2038      N2040   1.157       .  T
C2041      C2042   1.401   1_655  A
C2041      C2046   1.412       .  A
C2042      C2043   1.399   1_455  A
C2042      H2047   1.085       .  S
C2043      C2044   1.416       .  A
C2043      C2050   1.440   1_655  S
C2044      C2045   1.410       .  A
C2045      C2046   1.405       .  A
C2045      H2048   1.084       .  S
C2046      C2049   1.444       .  S
C2049      N2051   1.157       .  T
C2050      N2052   1.157       .  T
C2053      C2054   1.406       .  A
C2053      C2058   1.413       .  A
C2054      C2055   1.399       .  A
C2054      H2059   1.085       .  S
C2055      C2056   1.413       .  A
C2055      C2062   1.444       .  S
C2056      C2057   1.405       .  A
C2057      C2058   1.396       .  A
C2057      H2060   1.085       .  S
C2058      C2061   1.444       .  S
C2061      N2063   1.157       .  T
C2062      N2064   1.157       .  T
C2065      C2066   1.404       .  A
C2065      C2070   1.409   1_455  A
C2066      C2067   1.407       .  A
C2066      H2071   1.085       .  S
C2067      C2068   1.416       .  A
C2067      C2074   1.443       .  S
C2068      C2069   1.407   1_455  A
C2069      C2070   1.395       .  A
C2069      H2072   1.085       .  S
C2070      C2073   1.445       .  S
C2073      N2075   1.157       .  T
C2074      N2076   1.157       .  T
C2077      C2078   1.405       .  A
C2077      C2082   1.414       .  A
C2078      C2079   1.398       .  A
C2078      H2083   1.085       .  S
C2079      C2080   1.415       .  A
C2079      C2086   1.445       .  S
C2080      C2081   1.404       .  A
C2081      C2082   1.397       .  A
C2081      H2084   1.085       .  S
C2082      C2085   1.444       .  S
C2085      N2087   1.157       .  T
C2086      N2088   1.157       .  T
C2089      C2090   1.404       .  A
C2089      C2094   1.413   1_655  A
C2090      C2091   1.396       .  A
C2090      H2095   1.085       .  S
C2091      C2092   1.410       .  A
C2091      C2098   1.445       .  S
C2092      C2093   1.402   1_655  A
C2093      C2094   1.400       .  A
C2093      H2096   1.085       .  S
C2094      C2097   1.444       .  S
C2097      N2099   1.157       .  T
C2098      N2100   1.157       .  T
C2101      C2102   1.402       .  A
C2101      C2106   1.416       .  A
C2102      C2103   1.399       .  A
C2102      H2107   1.085       .  S
C2103      C2104   1.416       .  A
C2103      C2110   1.445       .  S
C2104      C2105   1.403       .  A
C2105      C2106   1.402       .  A
C2105      H2108   1.085       .  S
C2106      C2109   1.444       .  S
C2109      N2111   1.157       .  T
C2110      N2112   1.157   1_455  T
C2113      C2114   1.406       .  A
C2113      C2118   1.415       .  A
C2114      C2115   1.401       .  A
C2114      H2119   1.084       .  S
C2115      C2116   1.406       .  A
C2115      C2122   1.444       .  S
C2116      C2117   1.398       .  A
C2117      C2118   1.399       .  A
C2117      H2120   1.082       .  S
C2118      C2121   1.444       .  S
C2121      N2123   1.157       .  T
C2122      N2124   1.157   1_545  T
C2125      C2126   1.407       .  A
C2125      C2130   1.414       .  A
C2126      C2127   1.400       .  A
C2126      H2131   1.085       .  S
C2127      C2128   1.412       .  A
C2127      C2134   1.445       .  S
C2128      C2129   1.403       .  A
C2129      C2130   1.395       .  A
C2129      H2132   1.085       .  S
C2130      C2133   1.444       .  S
C2133      N2135   1.157       .  T
C2134      N2136   1.157       .  T
C2137      C2138   1.401       .  A
C2137      C2142   1.414       .  A
C2138      C2139   1.398       .  A
C2138      H2143   1.085       .  S
C2139      C2140   1.416       .  A
C2139      C2146   1.443       .  S
C2140      C2141   1.408       .  A
C2141      C2142   1.410       .  A
C2141      H2144   1.084       .  S
C2142      C2145   1.444       .  S
C2145      N2147   1.157   1_545  T
C2146      N2148   1.157       .  T
C2149      C2150   1.407       .  A
C2149      C2154   1.416       .  A
C2150      C2151   1.405       .  A
C2150      H2155   1.084       .  S
C2151      C2152   1.415       .  A
C2151      C2158   1.444       .  S
C2152      C2153   1.403       .  A
C2153      C2154   1.395       .  A
C2153      H2156   1.085       .  S
C2154      C2157   1.445       .  S
C2157      N2159   1.157       .  T
C2158      N2160   1.157       .  T
C2161      C2162   1.404       .  A
C2161      C2166   1.415       .  A
C2162      C2163   1.397       .  A
C2162      H2167   1.085       .  S
C2163      C2164   1.415       .  A
C2163      C2170   1.445       .  S
C2164      C2165   1.405       .  A
C2165      C2166   1.401       .  A
C2165      H2168   1.085       .  S
C2166      C2169   1.444       .  S
C2169      N2171   1.157       .  T
C2170      N2172   1.157       .  T
C2173      C2174   1.403       .  A
C2173      C2178   1.413       .  A
C2174      C2175   1.403       .  A
C2174      H2179   1.085       .  S
C2175      C2176   1.415       .  A
C2175      C2182   1.444   1_545  S
C2176      C2177   1.403       .  A
C2177      C2178   1.401       .  A
C2177      H2180   1.085       .  S
C2178      C2181   1.444       .  S
C2181      N2183   1.157       .  T
C2182      N2184   1.157       .  T
C2185      C2186   1.405       .  A
C2185      C2190   1.415       .  A
C2186      C2187   1.400       .  A
C2186      H2191   1.085       .  S
C2187      C2188   1.409       .  A
C2187      C2194   1.443       .  S
C2188      C2189   1.400       .  A
C2189      C2190   1.400       .  A
C2189      H2192   1.085       .  S
C2190      C2193   1.444       .  S
C2193      N2195   1.157   1_545  T
C2194      N2196   1.157       .  T
C2197      C2198   1.406       .  A
C2197      C2202   1.415       .  A
C2198      C2199   1.401       .  A
C2198      H2203   1.085       .  S
C2199      C2200   1.415       .  A
C2199      C2206   1.445       .  S
C2200      C2201   1.405       .  A
C2201      C2202   1.403       .  A
C2201      H2204   1.085       .  S
C2202      C2205   1.444       .  S
C2205      N2207   1.157       .  T
C2206      N2208   1.157       .  T
C2209      C2210   1.405       .  A
C2209      C2214   1.414       .  A
C2210      C2211   1.396       .  A
C2210      H2215   1.085       .  S
C2211      C2212   1.412       .  A
C2211      C2218   1.445       .  S
C2212      C2213   1.406       .  A
C2213      C2214   1.405       .  A
C2213      H2216   1.085       .  S
C2214      C2217   1.443       .  S
C2217      N2219   1.157       .  T
C2218      N2220   1.157       .  T
C2221      C2222   1.405       .  A
C2221      C2226   1.416       .  A
C2222      C2223   1.396       .  A
C2222      H2227   1.085       .  S
C2223      C2224   1.412       .  A
C2223      C2230   1.445       .  S
C2224      C2225   1.402       .  A
C2225      C2226   1.405       .  A
C2225      H2228   1.085       .  S
C2226      C2229   1.443   1_545  S
C2229      N2231   1.157       .  T
C2230      N2232   1.157       .  T
C2233      C2234   1.405       .  A
C2233      C2238   1.414       .  A
C2234      C2235   1.399       .  A
C2234      H2239   1.085       .  S
C2235      C2236   1.414       .  A
C2235      C2242   1.444       .  S
C2236      C2237   1.405       .  A
C2237      C2238   1.397       .  A
C2237      H2240   1.085       .  S
C2238      C2241   1.445       .  S
C2241      N2243   1.157       .  T
C2242      N2244   1.157       .  T
C2245      C2246   1.404       .  A
C2245      C2250   1.413       .  A
C2246      C2247   1.397       .  A
C2246      H2251   1.085       .  S
C2247      C2248   1.416       .  A
C2247      C2254   1.445       .  S
C2248      C2249   1.407       .  A
C2249      C2250   1.404       .  A
C2249      H2252   1.084       .  S
C2250      C2253   1.443   1_545  S
C2253      N2255   1.157       .  T
C2254      N2256   1.158       .  T
C2257      C2258   1.405       .  A
C2257      C2262   1.414       .  A
C2258      C2259   1.400       .  A
C2258      H2263   1.085       .  S
C2259      C2260   1.414       .  A
C2259      C2266   1.444       .  S
C2260      C2261   1.407       .  A
C2261      C2262   1.403       .  A
C2261      H2264   1.085       .  S
C2262      C2265   1.444       .  S
C2265      N2267   1.157       .  T
C2266      N2268   1.157       .  T
C2269      C2270   1.403       .  A
C2269      C2274   1.414   1_565  A
C2270      C2271   1.399       .  A
C2270      H2275   1.085       .  S
C2271      C2272   1.422       .  A
C2271      C2278   1.446       .  S
C2272      C2273   1.413   1_565  A
C2273      C2274   1.405       .  A
C2273      H2276   1.077       .  S
C2274      C2277   1.444       .  S
C2277      N2279   1.157       .  T
C2278      N2280   1.157       .  T
C2281      C2282   1.400       .  A
C2281      C2286   1.412   1_545  A
C2282      C2283   1.405   1_545  A
C2282      H2287   1.085       .  S
C2283      C2284   1.424       .  A
C2283      C2290   1.441   1_565  S
C2284      C2285   1.412       .  A
C2285      C2286   1.397       .  A
C2285      H2288   1.081       .  S
C2286      C2289   1.446       .  S
C2289      N2291   1.158       .  T
C2290      N2292   1.157       .  T
C2293      C2294   1.404       .  A
C2293      C2298   1.418       .  A
C2294      C2295   1.399       .  A
C2294      H2299   1.085       .  S
C2295      C2296   1.412       .  A
C2295      C2302   1.444   1_545  S
C2296      C2297   1.402       .  A
C2297      C2298   1.402       .  A
C2297      H2300   1.085       .  S
C2298      C2301   1.445       .  S
C2301      N2303   1.157       .  T
C2302      N2304   1.157       .  T
C2305      C2306   1.410       .  A
C2305      C2310   1.420       .  A
C2306      C2307   1.409       .  A
C2306      H2311   1.084       .  S
C2307      C2308   1.408       .  A
C2307      C2314   1.442       .  S
C2308      C2309   1.401       .  A
C2309      C2310   1.404       .  A
C2309      H2312   1.085       .  S
C2310      C2313   1.444       .  S
C2313      N2315   1.157       .  T
C2314      N2316   1.157       .  T
C2317      C2318   1.403       .  A
C2317      C2322   1.407       .  A
C2318      C2319   1.402       .  A
C2318      H2323   1.085       .  S
C2319      C2320   1.416       .  A
C2319      C2326   1.443       .  S
C2320      C2321   1.409       .  A
C2321      C2322   1.402       .  A
C2321      H2324   1.085       .  S
C2322      C2325   1.443       .  S
C2325      N2327   1.157       .  T
C2326      N2328   1.157       .  T
C2329      C2330   1.404       .  A
C2329      C2334   1.414       .  A
C2330      C2331   1.393       .  A
C2330      H2335   1.085       .  S
C2331      C2332   1.412       .  A
C2331      C2338   1.445       .  S
C2332      C2333   1.406       .  A
C2333      C2334   1.404       .  A
C2333      H2336   1.084       .  S
C2334      C2337   1.443       .  S
C2337      N2339   1.157       .  T
C2338      N2340   1.157       .  T
C2341      C2342   1.404       .  A
C2341      C2346   1.418       .  A
C2342      C2343   1.405       .  A
C2342      H2347   1.084       .  S
C2343      C2344   1.415       .  A
C2343      C2350   1.444       .  S
C2344      C2345   1.402       .  A
C2345      C2346   1.404       .  A
C2345      H2348   1.085       .  S
C2346      C2349   1.444       .  S
C2349      N2351   1.157       .  T
C2350      N2352   1.157       .  T
C2353      C2354   1.405       .  A
C2353      C2358   1.422       .  A
C2354      C2355   1.403       .  A
C2354      H2359   1.084       .  S
C2355      C2356   1.417       .  A
C2355      C2362   1.445       .  S
C2356      C2357   1.401       .  A
C2357      C2358   1.403       .  A
C2357      H2360   1.085       .  S
C2358      C2361   1.443       .  S
C2361      N2363   1.157       .  T
C2362      N2364   1.158       .  T
C2365      C2366   1.404       .  A
C2365      C2370   1.415       .  A
C2366      C2367   1.397       .  A
C2366      H2371   1.085       .  S
C2367      C2368   1.414       .  A
C2367      C2374   1.444       .  S
C2368      C2369   1.407       .  A
C2369      C2370   1.402       .  A
C2369      H2372   1.085       .  S
C2370      C2373   1.445       .  S
C2373      N2375   1.158       .  T
C2374      N2376   1.157       .  T
C2377      C2378   1.406   1_455  A
C2377      C2382   1.416       .  A
C2378      C2379   1.405       .  A
C2378      H2383   1.084       .  S
C2379      C2380   1.410   1_655  A
C2379      C2386   1.440       .  S
C2380      C2381   1.403       .  A
C2381      C2382   1.396       .  A
C2381      H2384   1.085       .  S
C2382      C2385   1.445       .  S
C2385      N2387   1.157       .  T
C2386      N2388   1.157       .  T
C2389      C2390   1.405       .  A
C2389      C2394   1.416       .  A
C2390      C2391   1.399       .  A
C2390      H2395   1.085       .  S
C2391      C2392   1.413       .  A
C2391      C2398   1.445       .  S
C2392      C2393   1.403       .  A
C2393      C2394   1.399       .  A
C2393      H2396   1.085       .  S
C2394      C2397   1.444       .  S
C2397      N2399   1.157       .  T
C2398      N2400   1.157       .  T
C2401      C2402   1.402       .  A
C2401      C2406   1.414       .  A
C2402      C2403   1.401       .  A
C2402      H2407   1.085       .  S
C2403      C2404   1.418       .  A
C2403      C2410   1.444       .  S
C2404      C2405   1.406       .  A
C2405      C2406   1.403       .  A
C2405      H2408   1.084       .  S
C2406      C2409   1.444       .  S
C2409      N2411   1.157       .  T
C2410      N2412   1.157       .  T
C2413      C2414   1.398       .  A
C2413      C2418   1.405       .  A
C2414      C2415   1.398       .  A
C2414      H2419   1.085       .  S
C2415      C2416   1.422       .  A
C2415      C2422   1.444       .  S
C2416      C2417   1.415       .  A
C2417      C2418   1.396       .  A
C2417      H2420   1.076       .  S
C2418      C2421   1.446       .  S
C2421      N2423   1.157   1_455  T
C2422      N2424   1.157       .  T
C2425      C2426   1.406       .  A
C2425      C2430   1.415       .  A
C2426      C2427   1.399       .  A
C2426      H2431   1.085       .  S
C2427      C2428   1.412       .  A
C2427      C2434   1.445       .  S
C2428      C2429   1.404       .  A
C2429      C2430   1.400       .  A
C2429      H2432   1.085       .  S
C2430      C2433   1.444       .  S
C2433      N2435   1.157       .  T
C2434      N2436   1.157       .  T
C2437      C2438   1.415       .  A
C2437      C2442   1.421       .  A
C2438      C2439   1.404       .  A
C2438      H2443   1.061       .  S
C2439      C2440   1.410       .  A
C2439      C2446   1.445       .  S
C2440      C2441   1.402       .  A
C2441      C2442   1.399       .  A
C2441      H2444   1.082       .  S
C2442      C2445   1.444       .  S
C2445      N2447   1.157       .  T
C2446      N2448   1.157   1_455  T
C2449      C2450   1.406       .  A
C2449      C2454   1.414       .  A
C2450      C2451   1.399       .  A
C2450      H2455   1.085       .  S
C2451      C2452   1.414       .  A
C2451      C2458   1.445       .  S
C2452      C2453   1.403       .  A
C2453      C2454   1.397       .  A
C2453      H2456   1.085       .  S
C2454      C2457   1.444       .  S
C2457      N2459   1.157       .  T
C2458      N2460   1.158       .  T
C2461      C2462   1.403       .  A
C2461      C2466   1.414       .  A
C2462      C2463   1.396       .  A
C2462      H2467   1.085       .  S
C2463      C2464   1.415       .  A
C2463      C2470   1.445       .  S
C2464      C2465   1.405       .  A
C2465      C2466   1.402       .  A
C2465      H2468   1.085       .  S
C2466      C2469   1.444   1_455  S
C2469      N2471   1.157       .  T
C2470      N2472   1.157       .  T
C2473      C2474   1.406       .  A
C2473      C2478   1.414       .  A
C2474      C2475   1.397       .  A
C2474      H2479   1.085       .  S
C2475      C2476   1.412       .  A
C2475      C2482   1.445       .  S
C2476      C2477   1.404       .  A
C2477      C2478   1.400       .  A
C2477      H2480   1.085   1_455  S
C2478      C2481   1.444   1_455  S
C2481      N2483   1.157       .  T
C2482      N2484   1.157       .  T
C2485      C2486   1.404   1_565  A
C2485      C2490   1.419       .  A
C2486      C2487   1.407   1_545  A
C2486      H2491   1.084       .  S
C2487      C2488   1.419       .  A
C2487      C2494   1.444   1_565  S
C2488      C2489   1.400       .  A
C2489      C2490   1.402       .  A
C2489      H2492   1.082       .  S
C2490      C2493   1.445       .  S
C2493      N2495   1.157       .  T
C2494      N2496   1.157       .  T
C2497      C2498   1.402       .  A
C2497      C2502   1.415       .  A
C2498      C2499   1.398       .  A
C2498      H2503   1.085       .  S
C2499      C2500   1.418       .  A
C2499      C2506   1.444       .  S
C2500      C2501   1.407       .  A
C2501      C2502   1.407       .  A
C2501      H2504   1.084       .  S
C2502      C2505   1.443       .  S
C2505      N2507   1.157       .  T
C2506      N2508   1.157       .  T
C2509      C2510   1.403       .  A
C2509      C2514   1.411       .  A
C2510      C2511   1.402       .  A
C2510      H2515   1.085       .  S
C2511      C2512   1.413       .  A
C2511      C2518   1.443       .  S
C2512      C2513   1.405       .  A
C2513      C2514   1.402       .  A
C2513      H2516   1.085       .  S
C2514      C2517   1.442       .  S
C2517      N2519   1.157       .  T
C2518      N2520   1.157       .  T
C2521      C2522   1.404       .  A
C2521      C2526   1.416   1_565  A
C2522      C2523   1.398       .  A
C2522      H2527   1.085       .  S
C2523      C2524   1.416       .  A
C2523      C2530   1.445       .  S
C2524      C2525   1.407   1_565  A
C2525      C2526   1.407       .  A
C2525      H2528   1.084       .  S
C2526      C2529   1.443       .  S
C2529      N2531   1.157       .  T
C2530      N2532   1.157       .  T
C2533      C2534   1.407   1_545  A
C2533      C2538   1.415       .  A
C2534      C2535   1.401       .  A
C2534      H2539   1.085       .  S
C2535      C2536   1.412   1_565  A
C2535      C2542   1.444       .  S
C2536      C2537   1.406       .  A
C2537      C2538   1.406       .  A
C2537      H2540   1.085       .  S
C2538      C2541   1.444       .  S
C2541      N2543   1.157       .  T
C2542      N2544   1.157       .  T
C2545      C2546   1.406       .  A
C2545      C2550   1.415       .  A
C2546      C2547   1.401       .  A
C2546      H2551   1.085       .  S
C2547      C2548   1.408       .  A
C2547      C2554   1.443       .  S
C2548      C2549   1.402       .  A
C2549      C2550   1.403       .  A
C2549      H2552   1.085       .  S
C2550      C2553   1.444       .  S
C2553      N2555   1.157       .  T
C2554      N2556   1.157       .  T
C2557      C2558   1.406       .  A
C2557      C2562   1.415       .  A
C2558      C2559   1.401       .  A
C2558      H2563   1.085       .  S
C2559      C2560   1.414       .  A
C2559      C2566   1.444       .  S
C2560      C2561   1.406       .  A
C2561      C2562   1.400       .  A
C2561      H2564   1.085       .  S
C2562      C2565   1.444       .  S
C2565      N2567   1.157       .  T
C2566      N2568   1.157       .  T
C2569      C2570   1.405       .  A
C2569      C2574   1.415       .  A
C2570      C2571   1.399       .  A
C2570      H2575   1.085       .  S
C2571      C2572   1.416       .  A
C2571      C2578   1.445       .  S
C2572      C2573   1.405       .  A
C2573      C2574   1.404       .  A
C2573      H2576   1.085       .  S
C2574      C2577   1.443       .  S
C2577      N2579   1.157       .  T
C2578      N2580   1.157       .  T
C2581      C2582   1.406       .  A
C2581      C2586   1.413       .  A
C2582      C2583   1.412       .  A
C2582      H2587   1.084       .  S
C2583      C2584   1.420       .  A
C2583      C2590   1.441       .  S
C2584      C2585   1.406       .  A
C2585      C2586   1.391       .  A
C2585      H2588   1.083       .  S
C2586      C2589   1.447       .  S
C2589      N2591   1.157       .  T
C2590      N2592   1.158       .  T
C2593      C2594   1.405       .  A
C2593      C2598   1.412       .  A
C2594      C2595   1.397       .  A
C2594      H2599   1.085       .  S
C2595      C2596   1.414       .  A
C2595      C2602   1.444       .  S
C2596      C2597   1.406       .  A
C2597      C2598   1.399       .  A
C2597      H2600   1.085       .  S
C2598      C2601   1.444       .  S
C2601      N2603   1.157       .  T
C2602      N2604   1.157       .  T
C2605      C2606   1.402       .  A
C2605      C2610   1.415       .  A
C2606      C2607   1.401       .  A
C2606      H2611   1.085       .  S
C2607      C2608   1.415       .  A
C2607      C2614   1.444       .  S
C2608      C2609   1.401       .  A
C2609      C2610   1.393       .  A
C2609      H2612   1.085       .  S
C2610      C2613   1.446       .  S
C2613      N2615   1.158       .  T
C2614      N2616   1.157       .  T
C2617      C2618   1.406       .  A
C2617      C2622   1.419       .  A
C2618      C2619   1.404       .  A
C2618      H2623   1.084       .  S
C2619      C2620   1.413       .  A
C2619      C2626   1.444       .  S
C2620      C2621   1.402       .  A
C2621      C2622   1.401       .  A
C2621      H2624   1.085       .  S
C2622      C2625   1.445       .  S
C2625      N2627   1.158       .  T
C2626      N2628   1.157       .  T
