geometry optimzed in LAMMPS
_audit_creation_date              2020-11-30 
_audit_creation_method            'lammps2cif' 
_symmetry_space_group_name_H-M    'P1' 
_symmetry_Int_Tables_number       1 
_symmetry_cell_setting            triclinic 
loop_ 
_symmetry_equiv_pos_as_xyz 
  x,y,z 
_cell_length_a                    36.39491227 
_cell_length_b                    24.494733364254834 
_cell_length_c                    36.386496239344154 
_cell_angle_alpha                 90.01869792661537 
_cell_angle_beta                  89.99854690273143 
_cell_angle_gamma                 89.98159149220837 
loop_ 
_atom_site_label 
_atom_site_type_symbol 
_atom_site_fract_x 
_atom_site_fract_y 
_atom_site_fract_z 
_atom_site_charge 
O1          O  0.17288241  0.42051504  0.32341037    -0.72300
O2          O  0.20605235  0.35640065  0.29199938    -0.51200
C3          C  0.18143926  0.37098274  0.31536005     0.81500
O4          O  0.17520379  0.60414833  0.17801041    -0.56900
O5          O  0.20629651  0.66859253  0.21115901    -0.49900
C6          C  0.18299979  0.65373825  0.18653844     0.73500
O7          O  0.17341589  0.42066312  0.17976854    -0.71400
O8          O  0.20593128  0.35647393  0.21176254    -0.52000
C9          C  0.18166762  0.37110512  0.18804421     0.79500
O10         O  0.17475929  0.60411563  0.32563219    -0.56600
O11         O  0.20640781  0.66857856  0.29303981    -0.49700
C12         C  0.18282645  0.65372461  0.31738125     0.76100
Zr13       Zr  0.19227662  0.51243056  0.30634941     2.54700
O14         O  0.12545708  0.51423345  0.30372763    -0.77100
O15         O  0.19329501  0.51165162  0.37328400    -0.90500
Zr16       Zr  0.19234820  0.51248257  0.19752023     2.64700
O17         O  0.12548325  0.51324822  0.20010396    -0.95500
O18         O  0.19302013  0.51140674  0.13061319    -0.77600
O19         O  0.19155759  0.45925165  0.25190643    -0.80900
O20         O  0.19140892  0.56567712  0.25196975    -2.15600
O21         O  0.31831682  0.60434176  0.32575193    -0.64300
O22         O  0.28687237  0.66875306  0.29290178    -0.48900
C23         C  0.31031644  0.65392785  0.31737582     0.74500
O24         O  0.32097756  0.42107178  0.18036129    -0.57200
O25         O  0.28771573  0.35682157  0.21150835    -0.49200
C26         C  0.31238483  0.37151170  0.18823702     0.76300
O27         O  0.31865065  0.60440086  0.17852581    -0.68600
O28         O  0.28689981  0.66872551  0.21119392    -0.47300
C29         C  0.31049787  0.65395179  0.18684548     0.77600
O30         O  0.32052935  0.42084007  0.32389484    -0.63900
O31         O  0.28784466  0.35668938  0.29203680    -0.51100
C32         C  0.31220361  0.37130142  0.31565380     0.76000
Zr33       Zr  0.30117570  0.51253239  0.30640178     2.77500
O34         O  0.36810301  0.51305165  0.30517009    -0.94700
O35         O  0.29889308  0.51095362  0.37323424    -0.75500
Zr36       Zr  0.30115480  0.51267338  0.19752976     2.70100
O37         O  0.36800309  0.51535026  0.19849050    -0.76800
O38         O  0.29805522  0.50979151  0.13071529    -0.95800
Zr39       Zr  0.24685458  0.40723322  0.25189321     2.21500
Zr40       Zr  0.24666482  0.61804114  0.25203311     2.11100
O41         O  0.30202232  0.56576499  0.25200488    -2.44500
O42         O  0.30205889  0.45941747  0.25192146    -0.76600
O43         O  0.24669628  0.56567554  0.30721022    -0.68800
O44         O  0.24682569  0.45945601  0.19660958    -2.29700
O45         O  0.24677567  0.45938129  0.30727829    -2.25900
O46         O  0.24671801  0.56587660  0.19673408    -0.70500
H47         H  0.17007143  0.58912899  0.25200384     0.81500
H48         H  0.24691357  0.43597778  0.17527885     0.82600
H49         H  0.32334766  0.58922639  0.25199284     0.84800
H50         H  0.24681053  0.43589054  0.32859237     0.82400
H51         H  0.21561378  0.49112677  0.12403378     0.45400
H52         H  0.28278659  0.54167852  0.12388379     0.44400
H53         H  0.37482861  0.49667873  0.22163502     0.44100
H54         H  0.37477755  0.54619818  0.29111282     0.42000
H55         H  0.27603817  0.53082218  0.37949223     0.45200
H56         H  0.20745804  0.47858258  0.37993352     0.39900
H57         H  0.11914372  0.49001533  0.28287174     0.46100
H58         H  0.11907133  0.54754603  0.21300506     0.42500
H59         H  0.37539483  0.52137209  0.33078478     0.47400
H60         H  0.16769667  0.50309378  0.38047477     0.46100
H61         H  0.11769416  0.51941260  0.17436317     0.46300
H62         H  0.32315186  0.51949126  0.12249069     0.46600
O63         O  0.42511532  0.41666922  0.42791031    -0.72300
O64         O  0.45652665  0.35228994  0.46082023    -0.51200
C65         C  0.43309419  0.36708211  0.43632860     0.81500
O66         O  0.07042996  0.60082257  0.43021603    -0.56900
O67         O  0.03740055  0.66483948  0.46185822    -0.49900
C68         C  0.06195579  0.65033211  0.43840623     0.73500
O69         O  0.06839410  0.41727359  0.42761417    -0.71400
O70         O  0.03687838  0.35279786  0.46032447    -0.52000
C71         C  0.06032800  0.36766378  0.43585838     0.79500
O72         O  0.42270090  0.60045740  0.43009375    -0.56600
O73         O  0.45561291  0.66462324  0.46170999    -0.49700
C74         C  0.43112855  0.65001045  0.43822822     0.76100
Zr75       Zr  0.44224127  0.50859518  0.44715542     2.54700
O76         O  0.44540918  0.51042076  0.38033005    -0.77100
O77         O  0.37531805  0.50761541  0.44728286    -0.90500
Zr78       Zr  0.05102428  0.50888331  0.44715682     2.64700
O79         O  0.04924242  0.50992000  0.38023419    -0.95500
O80         O  0.11790715  0.50728251  0.44863107    -0.77600
O81         O  0.49669577  0.45545158  0.44640035    -0.80900
O82         O  0.49654177  0.56196983  0.44635612    -2.15600
O83         O  0.42279841  0.60000249  0.07371526    -0.64300
O84         O  0.45559860  0.66434744  0.04219457    -0.48900
C85         C  0.43115808  0.64960276  0.06568590     0.74500
O86         O  0.06803972  0.41713540  0.07585079    -0.57200
O87         O  0.03711191  0.35266536  0.04255497    -0.49200
C88         C  0.06026172  0.36753079  0.06731337     0.76300
O89         O  0.07034410  0.60061152  0.07342805    -0.68600
O90         O  0.03746767  0.66479076  0.04181229    -0.47300
C91         C  0.06195928  0.65017294  0.06529290     0.77600
O92         O  0.42517662  0.41645202  0.07540078    -0.63900
O93         O  0.45676826  0.35214109  0.04259205    -0.51100
C94         C  0.43328978  0.36688803  0.06707068     0.76000
Zr95       Zr  0.44222395  0.50827269  0.05614056     2.77500
O96         O  0.44298775  0.50819231  0.12307876    -0.94700
O97         O  0.37540825  0.50587016  0.05394717    -0.75500
Zr98       Zr  0.05112133  0.50872817  0.05600812     2.70100
O99         O  0.05039170  0.51095747  0.12287097    -0.76800
O100        O  0.11791213  0.50525230  0.05310207    -0.95800
Zr101      Zr  0.49675183  0.40310296  0.00159921     2.21500
Zr102      Zr  0.49648437  0.61390602  0.00184420     2.11100
O103        O  0.49658125  0.56160005  0.05715360    -2.44500
O104        O  0.49677394  0.45532593  0.05686037    -0.76600
O105        O  0.44131003  0.56154772  0.00174031    -0.68800
O106        O  0.05195124  0.45558595  0.00155987    -2.29700
O107        O  0.44135364  0.45531266  0.00159531    -2.25900
O108        O  0.05184310  0.56201020  0.00165057    -0.70500
H109        H  0.49647392  0.58556418  0.42509414     0.81500
H110        H  0.07327110  0.43209969  0.00159483     0.82600
H111        H  0.49660892  0.58501170  0.07851903     0.84800
H112        H  0.42004396  0.43181918  0.00161121     0.82400
H113        H  0.12420397  0.48113544  0.46839347     0.45400
H114        H  0.12487899  0.53654616  0.03735830     0.44400
H115        H  0.02552480  0.49799006  0.12959893     0.44100
H116        H  0.45704123  0.54123732  0.12998618     0.42000
H117        H  0.36906889  0.52349823  0.03030244     0.45200
H118        H  0.36853410  0.47497488  0.46181711     0.39900
H119        H  0.46730126  0.48818415  0.37423538     0.46100
H120        H  0.03382776  0.54183532  0.37382348     0.42500
H121        H  0.41733941  0.51654552  0.13021938     0.47400
H122        H  0.36847506  0.49823060  0.42171004     0.46100
H123        H  0.07440731  0.52055440  0.37277494     0.46300
H124        H  0.12610462  0.51576308  0.07807028     0.46600
C125        C  0.37156391  0.26039631  0.37551406     0.00500
O126        O  0.31792505  0.10404021  0.42790589    -0.72300
O127        O  0.28681188  0.16849274  0.46106218    -0.51200
C128        C  0.31005486  0.15364482  0.43638382     0.81500
O129        O  0.17290167  0.92059991  0.43016408    -0.56900
O130        O  0.20586867  0.85635615  0.46162240    -0.49900
C131        C  0.18136671  0.87103598  0.43817411     0.73500
O132        O  0.17463887  0.10411420  0.42837231    -0.71400
O133        O  0.20649021  0.16854770  0.46079314    -0.52000
C134        C  0.18283788  0.15372203  0.43649714     0.79500
O135        O  0.32050990  0.92045904  0.43036836    -0.56600
O136        O  0.28750531  0.85628185  0.46182853    -0.49700
C137        C  0.31205133  0.87091246  0.43841356     0.76100
Zr138      Zr  0.30113519  0.01226769  0.44761709     2.54700
O139        O  0.29980203  0.00983564  0.38076802    -0.77100
O140        O  0.36804671  0.01334734  0.44920630    -0.90500
Zr141      Zr  0.19223970  0.01240687  0.44748468     2.64700
O142        O  0.19441323  0.01233570  0.38059317    -0.95500
O143        O  0.12535823  0.01389067  0.44819172    -0.77600
O144        O  0.24668749  0.06551500  0.44675324    -0.80900
O145        O  0.24667585  0.95923657  0.44658114    -2.15600
O146        O  0.32014401  0.92033281  0.07376235    -0.64300
O147        O  0.28726136  0.85617010  0.04212168    -0.48900
C148        C  0.31170511  0.87077364  0.06564302     0.74500
O149        O  0.17488559  0.10383556  0.07600107    -0.57200
O150        O  0.20608824  0.16820212  0.04289066    -0.49200
C151        C  0.18275681  0.15340631  0.06748871     0.76300
O152        O  0.17303826  0.92054171  0.07406258    -0.68600
O153        O  0.20559652  0.85642852  0.04202644    -0.47300
C154        C  0.18131570  0.87100906  0.06574006     0.77600
O155        O  0.31835892  0.10429760  0.07557940    -0.63900
O156        O  0.28659970  0.16865661  0.04297686    -0.51100
C157        C  0.31019139  0.15388588  0.06733185     0.76000
Zr158      Zr  0.30112555  0.01241075  0.05641396     2.77500
O159        O  0.30095190  0.01203022  0.12335996    -0.94700
O160        O  0.36793800  0.01459682  0.05364268    -0.75500
Zr161      Zr  0.19219849  0.01229035  0.05640471     2.70100
O162        O  0.19402720  0.01048934  0.12326644    -0.76800
O163        O  0.12535163  0.01499652  0.05423127    -0.95800
Zr164      Zr  0.24655148  0.11786482  0.00196287     2.21500
Zr165      Zr  0.24658304  0.90708030  0.00193979     2.11100
O166        O  0.24666616  0.95929096  0.05731717    -2.44500
O167        O  0.24661602  0.06554456  0.05718810    -0.76600
O168        O  0.30191674  0.95907136  0.00203272    -0.68800
O169        O  0.19128458  0.06549660  0.00198139    -2.29700
O170        O  0.30193978  0.06561022  0.00200526    -2.25900
O171        O  0.19127652  0.95915214  0.00192438    -0.70500
H172        H  0.24674048  0.93575447  0.42525272     0.81500
H173        H  0.16993082  0.08892456  0.00201773     0.82600
H174        H  0.24663148  0.93582284  0.07864308     0.84800
H175        H  0.32323588  0.08912653  0.00202244     0.82400
H176        H  0.11883976  0.02648810  0.47320683     0.45400
H177        H  0.11824104  0.98177721  0.04044798     0.44400
H178        H  0.21671837  0.03061750  0.12971705     0.44100
H179        H  0.28525997  0.98065237  0.13025194     0.42000
H180        H  0.37428539  0.99045182  0.03275873     0.45200
H181        H  0.37448934  0.04517187  0.46469473     0.39900
H182        H  0.27619932  0.02734936  0.37413470     0.46100
H183        H  0.20771123  0.97846641  0.37397622     0.42500
H184        H  0.32614056  0.00068059  0.13026080     0.47400
H185        H  0.37542207  0.02414431  0.42404203     0.46100
H186        H  0.16871497  0.00550843  0.37293311     0.46300
H187        H  0.11753156  0.00767591  0.07982446     0.46600
C188        C  0.12148148  0.76072022  0.37829980     0.00500
O189        O  0.42263447  0.10067366  0.18015457    -0.72300
O190        O  0.45568921  0.16483887  0.21159922    -0.51200
C191        C  0.43112242  0.15020872  0.18821657     0.81500
O192        O  0.42506760  0.91706594  0.32564127    -0.56900
O193        O  0.45635636  0.85265651  0.29261518    -0.49900
C194        C  0.43301040  0.86747576  0.31719944     0.73500
O195        O  0.42261139  0.10061820  0.32328148    -0.71400
O196        O  0.45581197  0.16477370  0.29200950    -0.52000
C197        C  0.43118471  0.15014946  0.31533782     0.79500
O198        O  0.42458621  0.91720656  0.17800456    -0.56600
O199        O  0.45631502  0.85284375  0.21063494    -0.49700
C200        C  0.43273841  0.86763712  0.18626774     0.76100
Zr201      Zr  0.44208488  0.00883058  0.19724874     2.54700
O202        O  0.37524218  0.00715291  0.19912653    -0.77100
O203        O  0.44361928  0.00917078  0.13033148    -0.90500
Zr204      Zr  0.44200959  0.00883808  0.30608759     2.64700
O205        O  0.37512035  0.00789047  0.30406749    -0.95500
O206        O  0.44269742  0.01138664  0.37298812    -0.77600
O207        O  0.44126283  0.06202941  0.25167359    -0.80900
O208        O  0.44117869  0.95559552  0.25165770    -2.15600
O209        O  0.06819645  0.91708537  0.17786134    -0.64300
O210        O  0.03680672  0.85270078  0.21076772    -0.48900
C211        C  0.06022508  0.86750093  0.18626168     0.74500
O212        O  0.07063433  0.10059695  0.32289694    -0.57200
O213        O  0.03755393  0.16486586  0.29157203    -0.49200
C214        C  0.06218672  0.15017517  0.31487054     0.76300
O215        O  0.06802485  0.91697934  0.32556586    -0.68600
O216        O  0.03677049  0.85254378  0.29256892    -0.47300
C217        C  0.06010789  0.86737350  0.31715611     0.77600
O218        O  0.07048549  0.10074321  0.18015647    -0.63900
O219        O  0.03743188  0.16488601  0.21165277    -0.51100
C220        C  0.06202909  0.15029590  0.18828042     0.76000
Zr221      Zr  0.05090450  0.00889104  0.19716109     2.77500
O222        O  0.11782605  0.00838148  0.19752909    -0.94700
O223        O  0.04777955  0.01058397  0.13034436    -0.75500
Zr224      Zr  0.05082409  0.00875698  0.30616550     2.70100
O225        O  0.11765417  0.00557099  0.30564776    -0.76800
O226        O  0.04810265  0.01274393  0.37296610    -0.95800
Zr227      Zr  0.99654281  0.11406186  0.25167380     2.21500
Zr228      Zr  0.49654296  0.90332498  0.25168735     2.11100
O229        O  0.05182851  0.95573386  0.25164413    -2.44500
O230        O  0.05176753  0.06186022  0.25170150    -0.76600
O231        O  0.49651833  0.95561060  0.19648021    -0.68800
O232        O  0.99645747  0.06192790  0.30701251    -2.29700
O233        O  0.99649566  0.06203572  0.19624441    -2.27500
O234        O  0.49643299  0.95549240  0.30701316    -0.70500
H235        H  0.41986408  0.93211551  0.25162030     0.81500
H236        H  0.99652761  0.08547988  0.32830592     0.82600
H237        H  0.07317884  0.93230164  0.25168826     0.84800
H238        H  0.99652264  0.08554248  0.17493668     0.82400
H239        H  0.46489534  0.03271884  0.37937636     0.45400
H240        H  0.03357326  0.98030684  0.38018991     0.44400
H241        H  0.12459629  0.02061881  0.28137369     0.44100
H242        H  0.12466789  0.97612190  0.21242064     0.42000
H243        H  0.02563120  0.98891311  0.12428584     0.45200
H244        H  0.45674619  0.04314727  0.12365945     0.39900
H245        H  0.36878134  0.02866272  0.22124562     0.46100
H246        H  0.36866876  0.97390285  0.29082878     0.42500
H247        H  0.12479573  0.99847138  0.17208005     0.47400
H248        H  0.41782826  0.01585013  0.12292067     0.46100
H249        H  0.36755683  0.00105823  0.32979971     0.46300
H250        H  0.07345674  0.00436903  0.38107242     0.46600
C251        C  0.37152442  0.76042857  0.12552436     0.00500
C252        C  0.12163810  0.26073689  0.12832194     0.00500
C253        C  0.37169011  0.26069345  0.12816600     0.00500
C254        C  0.12160915  0.76043656  0.12548985     0.00500
C255        C  0.12170719  0.26047929  0.37510182     0.00500
C256        C  0.37172719  0.76069893  0.37823284     0.00500
C257        C  0.09935158  0.22464689  0.35180664    -0.10200
C258        C  0.08186056  0.19223061  0.33399136    -0.11800
C259        C  0.08168126  0.19246792  0.16926026    -0.10200
C260        C  0.09920471  0.22501983  0.15160192    -0.11800
C261        C  0.41373072  0.82570503  0.33696160    -0.10200
C262        C  0.39556238  0.79445210  0.35501989    -0.11800
C263        C  0.07954623  0.82568280  0.16655764    -0.10200
C264        C  0.09772382  0.79427807  0.14860755    -0.11800
C265        C  0.41347690  0.82583115  0.16653230    -0.10200
C266        C  0.39537083  0.79441954  0.14854251    -0.11800
C267        C  0.39401885  0.22476777  0.15137335    -0.10200
C268        C  0.41152092  0.19229304  0.16910136    -0.11800
C269        C  0.09759113  0.79443476  0.35508546    -0.10200
C270        C  0.07939783  0.82562519  0.33697682    -0.11800
C271        C  0.34770675  0.22701384  0.10504286    -0.10200
C272        C  0.32948509  0.19572073  0.08705272    -0.11800
C273        C  0.14530215  0.22672190  0.10509907    -0.10200
C274        C  0.16341850  0.19523309  0.08715815    -0.11800
C275        C  0.14419959  0.79629796  0.10247599    -0.10200
C276        C  0.16177001  0.82885178  0.08487262    -0.11800
C277        C  0.34926108  0.79651306  0.40143355    -0.10200
C278        C  0.33167445  0.82885255  0.41922726    -0.11800
C279        C  0.16353819  0.19547828  0.41665711    -0.10200
C280        C  0.14541124  0.22669728  0.39848687    -0.11800
C281        C  0.34892154  0.79610158  0.10236084    -0.10200
C282        C  0.33129496  0.82861261  0.08475661    -0.11800
C283        C  0.14407357  0.79660647  0.40132397    -0.10200
C284        C  0.16173724  0.82899926  0.41898722    -0.11800
C285        C  0.39400016  0.22457265  0.35229726    -0.10200
C286        C  0.41158542  0.19221077  0.33452744    -0.11800
C287        C  0.34762338  0.22664297  0.39863161    -0.10200
C288        C  0.32935720  0.19539545  0.41660486    -0.11800
C289        C  0.07953652  0.32579153  0.08714041    -0.10200
C290        C  0.09774592  0.29452706  0.10516782    -0.11800
C291        C  0.08160090  0.69227450  0.08443817    -0.10200
C292        C  0.09917395  0.72465736  0.10221561    -0.11800
C293        C  0.41150744  0.69166027  0.08488199    -0.10200
C294        C  0.39395992  0.72430820  0.10247757    -0.11800
C295        C  0.09905869  0.72497963  0.40158459    -0.10200
C296        C  0.08154857  0.69252305  0.41934014    -0.11800
C297        C  0.39416719  0.72475975  0.40134769    -0.10200
C298        C  0.41159668  0.69216459  0.41906603    -0.11800
C299        C  0.07958928  0.32587335  0.41604319    -0.10200
C300        C  0.09775545  0.29441228  0.39811232    -0.11800
C301        C  0.39569802  0.29407591  0.10490237    -0.10200
C302        C  0.41401177  0.32511268  0.08682713    -0.11800
C303        C  0.39547750  0.29397968  0.39874680    -0.10200
C304        C  0.41373718  0.32526922  0.41668395    -0.11800
C305        C  0.32965027  0.69569580  0.33706934    -0.10200
C306        C  0.34786391  0.72698042  0.35504927    -0.11800
C307        C  0.16185920  0.32882658  0.33444065    -0.10200
C308        C  0.14431148  0.29628102  0.35206676    -0.11800
C309        C  0.33196120  0.32944795  0.16902024    -0.10200
C310        C  0.34939289  0.29687367  0.15127174    -0.11800
C311        C  0.16359217  0.69544749  0.16682902    -0.10200
C312        C  0.14535903  0.72663205  0.14877007    -0.11800
C313        C  0.32974537  0.69573213  0.16713379    -0.10200
C314        C  0.34781440  0.72690197  0.14894975    -0.11800
C315        C  0.33174954  0.32915214  0.33479885    -0.10200
C316        C  0.34919655  0.29648992  0.35244126    -0.11800
C317        C  0.14524674  0.72681116  0.35509419    -0.10200
C318        C  0.16343731  0.69548769  0.33708654    -0.11800
C319        C  0.14432862  0.29657584  0.15129543    -0.10200
C320        C  0.16204392  0.32900898  0.16888409    -0.11800
O321        O  0.17288235  0.42051511  0.82341032    -0.72300
O322        O  0.20605247  0.35640083  0.79199942    -0.51200
C323        C  0.18143930  0.37098283  0.81536006     0.81500
O324        O  0.17520381  0.60414825  0.67801032    -0.56900
O325        O  0.20629639  0.66859249  0.71115901    -0.49900
C326        C  0.18299974  0.65373820  0.68653838     0.73500
O327        O  0.17341588  0.42066317  0.67976856    -0.71400
O328        O  0.20593132  0.35647412  0.71176261    -0.52000
C329        C  0.18166765  0.37110519  0.68804423     0.79500
O330        O  0.17475926  0.60411560  0.82563225    -0.56600
O331        O  0.20640778  0.66857854  0.79303987    -0.49700
C332        C  0.18282642  0.65372457  0.81738131     0.76100
Zr333      Zr  0.19227667  0.51243054  0.80634942     2.54700
O334        O  0.12545717  0.51423335  0.80372771    -0.77100
O335        O  0.19329529  0.51165151  0.87328394    -0.90500
Zr336      Zr  0.19234826  0.51248253  0.69752029     2.64700
O337        O  0.12548331  0.51324814  0.70010405    -0.95500
O338        O  0.19302005  0.51140704  0.63061326    -0.77600
O339        O  0.19155764  0.45925156  0.75190648    -0.80900
O340        O  0.19140893  0.56567709  0.75196977    -2.15600
O341        O  0.31831682  0.60434195  0.82575194    -0.64300
O342        O  0.28687234  0.66875324  0.79290178    -0.48900
C343        C  0.31031643  0.65392805  0.81737578     0.74500
O344        O  0.32097748  0.42107185  0.68036133    -0.57200
O345        O  0.28771572  0.35682152  0.71150836    -0.49200
C346        C  0.31238476  0.37151173  0.68823699     0.76300
O347        O  0.31865060  0.60440091  0.67852591    -0.68600
O348        O  0.28689980  0.66872565  0.71119396    -0.47300
C349        C  0.31049785  0.65395185  0.68684554     0.77600
O350        O  0.32052931  0.42083998  0.82389484    -0.63900
O351        O  0.28784463  0.35668929  0.79203680    -0.51100
C352        C  0.31220360  0.37130131  0.81565377     0.76000
Zr353      Zr  0.30117571  0.51253248  0.80640178     2.77500
O354        O  0.36810297  0.51305158  0.80516989    -0.94700
O355        O  0.29889307  0.51095390  0.87323424    -0.75500
Zr356      Zr  0.30115478  0.51267348  0.69752978     2.70100
O357        O  0.36800306  0.51535017  0.69849057    -0.76800
O358        O  0.29805516  0.50979178  0.63071534    -0.95800
Zr359      Zr  0.24685471  0.40723336  0.75189327     2.21500
Zr360      Zr  0.24666478  0.61804125  0.75203309     2.11100
O361        O  0.30202220  0.56576502  0.75200490    -2.44500
O362        O  0.30205906  0.45941761  0.75192146    -0.76600
O363        O  0.24669628  0.56567557  0.80721016    -0.68800
O364        O  0.24682576  0.45945599  0.69660961    -2.29700
O365        O  0.24677576  0.45938134  0.80727841    -2.25900
O366        O  0.24671800  0.56587669  0.69673401    -0.70500
H367        H  0.17007139  0.58912885  0.75200388     0.81500
H368        H  0.24691362  0.43597770  0.67527892     0.82600
H369        H  0.32334750  0.58922623  0.75199293     0.84800
H370        H  0.24681073  0.43589054  0.82859262     0.82400
H371        H  0.21561366  0.49112697  0.62403375     0.45400
H372        H  0.28278659  0.54167884  0.62388384     0.44400
H373        H  0.37482854  0.49667862  0.72163510     0.44100
H374        H  0.37477751  0.54619835  0.79111279     0.42000
H375        H  0.27603815  0.53082247  0.87949222     0.45200
H376        H  0.20745820  0.47858221  0.87993340     0.39900
H377        H  0.11914387  0.49001546  0.78287169     0.46100
H378        H  0.11907136  0.54754594  0.71300515     0.42500
H379        H  0.37539480  0.52137171  0.83078464     0.47400
H380        H  0.16769694  0.50309391  0.88047472     0.46100
H381        H  0.11769419  0.51941248  0.67436328     0.46300
H382        H  0.32315178  0.51949144  0.62249075     0.46600
O383        O  0.42511527  0.41666921  0.92791038    -0.72300
O384        O  0.45652670  0.35228987  0.96082015    -0.51200
C385        C  0.43309418  0.36708209  0.93632858     0.81500
O386        O  0.07042997  0.60082247  0.93021609    -0.56900
O387        O  0.03740043  0.66483940  0.96185813    -0.49900
C388        C  0.06195576  0.65033201  0.93840623     0.73500
O389        O  0.06839411  0.41727360  0.92761418    -0.71400
O390        O  0.03687838  0.35279793  0.96032449    -0.52000
C391        C  0.06032801  0.36766382  0.93585840     0.79500
O392        O  0.42270084  0.60045739  0.93009360    -0.56600
O393        O  0.45561289  0.66462313  0.96170989    -0.49700
C394        C  0.43112848  0.65001040  0.93822814     0.76100
Zr395      Zr  0.44224126  0.50859522  0.94715535     2.54700
O396        O  0.44540915  0.51042066  0.88033001    -0.77100
O397        O  0.37531803  0.50761573  0.94728260    -0.90500
Zr398      Zr  0.05102424  0.50888328  0.94715682     2.64700
O399        O  0.04924239  0.50992028  0.88023412    -0.95500
O400        O  0.11790711  0.50728242  0.94863113    -0.77600
O401        O  0.49669578  0.45545166  0.94640033    -0.80900
O402        O  0.49654182  0.56196988  0.94635596    -2.15600
O403        O  0.42279841  0.60000248  0.57371533    -0.64300
O404        O  0.45559864  0.66434735  0.54219463    -0.48900
C405        C  0.43115809  0.64960273  0.56568595     0.74500
O406        O  0.06803970  0.41713537  0.57585087    -0.57200
O407        O  0.03711188  0.35266535  0.54255504    -0.49200
C408        C  0.06026168  0.36753078  0.56731345     0.76300
O409        O  0.07034410  0.60061153  0.57342816    -0.68600
O410        O  0.03746767  0.66479077  0.54181239    -0.47300
C411        C  0.06195930  0.65017296  0.56529297     0.77600
O412        O  0.42517661  0.41645196  0.57540079    -0.63900
O413        O  0.45676839  0.35214102  0.54259219    -0.51100
C414        C  0.43328984  0.36688796  0.56707074     0.76000
Zr415      Zr  0.44222389  0.50827270  0.55614055     2.77500
O416        O  0.44298772  0.50819259  0.62307876    -0.94700
O417        O  0.37540821  0.50587004  0.55394724    -0.75500
Zr418      Zr  0.05112141  0.50872818  0.55600818     2.70100
O419        O  0.05039195  0.51095737  0.62287104    -0.76800
O420        O  0.11791220  0.50525258  0.55310180    -0.95800
Zr421      Zr  0.49675186  0.40310292  0.50159927     2.21500
Zr422      Zr  0.49648437  0.61390602  0.50184425     2.11100
O423        O  0.49658121  0.56159992  0.55715354    -2.44500
O424        O  0.49677391  0.45532599  0.55686040    -0.76600
O425        O  0.44130995  0.56154784  0.50174033    -0.68800
O426        O  0.05195116  0.45558611  0.50155990    -2.29700
O427        O  0.44135370  0.45531268  0.50159536    -2.25900
O428        O  0.05184316  0.56201011  0.50165061    -0.70500
H429        H  0.49647398  0.58556427  0.92509383     0.81500
H430        H  0.07327096  0.43209999  0.50159484     0.82600
H431        H  0.49660885  0.58501159  0.57851894     0.84800
H432        H  0.42004404  0.43181942  0.50161127     0.82400
H433        H  0.12420392  0.48113554  0.96839366     0.45400
H434        H  0.12487894  0.53654660  0.53735800     0.44400
H435        H  0.02552493  0.49799045  0.62959901     0.44100
H436        H  0.45704117  0.54123756  0.62998613     0.42000
H437        H  0.36906878  0.52349844  0.53030264     0.45200
H438        H  0.36853408  0.47497546  0.96181704     0.39900
H439        H  0.46730125  0.48818402  0.87423544     0.46100
H440        H  0.03382766  0.54183553  0.87382340     0.42500
H441        H  0.41733942  0.51654573  0.63021941     0.47400
H442        H  0.36847502  0.49823057  0.92170977     0.46100
H443        H  0.07440721  0.52055479  0.87277486     0.46300
H444        H  0.12610472  0.51576341  0.57806994     0.46600
C445        C  0.37156388  0.26039632  0.87551412     0.00500
O446        O  0.31792506  0.10404020  0.92790592    -0.72300
O447        O  0.28681188  0.16849271  0.96106221    -0.51200
C448        C  0.31005486  0.15364479  0.93638386     0.81500
O449        O  0.17290165  0.92059989  0.93016395    -0.56900
O450        O  0.20586868  0.85635623  0.96162234    -0.49900
C451        C  0.18136668  0.87103597  0.93817405     0.73500
O452        O  0.17463893  0.10411414  0.92837220    -0.71400
O453        O  0.20649016  0.16854760  0.96079317    -0.52000
C454        C  0.18283788  0.15372195  0.93649711     0.79500
O455        O  0.32050994  0.92045914  0.93036841    -0.56600
O456        O  0.28750524  0.85628193  0.96182844    -0.49700
C457        C  0.31205136  0.87091257  0.93841356     0.76100
Zr458      Zr  0.30113523  0.01226772  0.94761710     2.54700
O459        O  0.29980197  0.00983554  0.88076802    -0.77100
O460        O  0.36804677  0.01334761  0.94920640    -0.90500
Zr461      Zr  0.19223968  0.01240685  0.94748463     2.64700
O462        O  0.19441317  0.01233599  0.88059314    -0.95500
O463        O  0.12535819  0.01389057  0.94819181    -0.77600
O464        O  0.24668751  0.06551503  0.94675323    -0.80900
O465        O  0.24667587  0.95923670  0.94658122    -2.15600
O466        O  0.32014398  0.92033276  0.57376220    -0.64300
O467        O  0.28726149  0.85616999  0.54212143    -0.48900
C468        C  0.31170517  0.87077360  0.56564284     0.74500
O469        O  0.17488559  0.10383564  0.57600111    -0.57200
O470        O  0.20608828  0.16820211  0.54289067    -0.49200
C471        C  0.18275685  0.15340641  0.56748872     0.76300
O472        O  0.17303840  0.92054168  0.57406269    -0.68600
O473        O  0.20559652  0.85642843  0.54202645    -0.47300
C474        C  0.18131575  0.87100902  0.56574013     0.77600
O475        O  0.31835890  0.10429749  0.57557952    -0.63900
O476        O  0.28659980  0.16865649  0.54297686    -0.51100
C477        C  0.31019142  0.15388576  0.56733193     0.76000
Zr478      Zr  0.30112554  0.01241073  0.55641397     2.77500
O479        O  0.30095189  0.01203048  0.62335999    -0.94700
O480        O  0.36793798  0.01459671  0.55364277    -0.75500
Zr481      Zr  0.19219851  0.01229033  0.55640482     2.70100
O482        O  0.19402746  0.01048926  0.62326652    -0.76800
O483        O  0.12535160  0.01499642  0.55423137    -0.95800
Zr484      Zr  0.24655151  0.11786477  0.50196288     2.21500
Zr485      Zr  0.24658308  0.90708027  0.50193977     2.11100
O486        O  0.24666621  0.95929083  0.55731718    -2.44500
O487        O  0.24661601  0.06554450  0.55718815    -0.76600
O488        O  0.30191679  0.95907140  0.50203270    -0.68800
O489        O  0.19128457  0.06549656  0.50198149    -2.29700
O490        O  0.30193988  0.06561021  0.50200525    -2.25900
O491        O  0.19127666  0.95915228  0.50192444    -0.70500
H492        H  0.24674048  0.93575460  0.92525281     0.81500
H493        H  0.16993080  0.08892450  0.50201782     0.82600
H494        H  0.24663165  0.93582267  0.57864308     0.84800
H495        H  0.32323602  0.08912645  0.50202236     0.82400
H496        H  0.11883978  0.02648849  0.97320682     0.45400
H497        H  0.11824102  0.98177720  0.54044798     0.44400
H498        H  0.21671856  0.03061759  0.62971704     0.44100
H499        H  0.28525990  0.98065270  0.63025203     0.42000
H500        H  0.37428536  0.99045172  0.53275882     0.45200
H501        H  0.37448929  0.04517224  0.96469477     0.39900
H502        H  0.27619931  0.02734943  0.87413477     0.46100
H503        H  0.20771120  0.97846681  0.87397620     0.42500
H504        H  0.32614056  0.00068078  0.63026087     0.47400
H505        H  0.37542213  0.02414453  0.92404217     0.46100
H506        H  0.16871489  0.00550869  0.87293311     0.46300
H507        H  0.11753149  0.00767562  0.57982455     0.46600
C508        C  0.12148146  0.76072021  0.87829986     0.00500
O509        O  0.42263443  0.10067376  0.68015462    -0.72300
O510        O  0.45568913  0.16483905  0.71159923    -0.51200
C511        C  0.43112234  0.15020883  0.68821662     0.81500
O512        O  0.42506758  0.91706605  0.82564139    -0.56900
O513        O  0.45635637  0.85265671  0.79261526    -0.49900
C514        C  0.43301045  0.86747590  0.81719957     0.73500
O515        O  0.42261137  0.10061825  0.82328154    -0.71400
O516        O  0.45581195  0.16477375  0.79200954    -0.52000
C517        C  0.43118469  0.15014949  0.81533787     0.79500
O518        O  0.42458624  0.91720652  0.67800447    -0.56600
O519        O  0.45631492  0.85284369  0.71063498    -0.49700
C520        C  0.43273838  0.86763707  0.68626771     0.76100
Zr521      Zr  0.44208486  0.00883064  0.69724867     2.54700
O522        O  0.37524214  0.00715321  0.69912661    -0.77100
O523        O  0.44361927  0.00917108  0.63033143    -0.90500
Zr524      Zr  0.44200958  0.00883812  0.80608761     2.64700
O525        O  0.37512034  0.00789074  0.80406758    -0.95500
O526        O  0.44269740  0.01138654  0.87298816    -0.77600
O527        O  0.44126295  0.06202934  0.75167358    -0.80900
O528        O  0.44117873  0.95559573  0.75165762    -2.15600
O529        O  0.06819656  0.91708534  0.67786149    -0.64300
O530        O  0.03680669  0.85270074  0.71076775    -0.48900
C531        C  0.06022511  0.86750088  0.68626177     0.74500
O532        O  0.07063447  0.10059711  0.82289691    -0.57200
O533        O  0.03755387  0.16486586  0.79157203    -0.49200
C534        C  0.06218676  0.15017528  0.81487049     0.76300
O535        O  0.06802488  0.91697943  0.82556579    -0.68600
O536        O  0.03677044  0.85254379  0.79256900    -0.47300
C537        C  0.06010787  0.86737357  0.81715614     0.77600
O538        O  0.07048543  0.10074328  0.68015653    -0.63900
O539        O  0.03743200  0.16488621  0.71165289    -0.51100
C540        C  0.06202912  0.15029598  0.68828049     0.76000
Zr541      Zr  0.05090448  0.00889107  0.69716115     2.77500
O542        O  0.11782600  0.00838174  0.69752915    -0.94700
O543        O  0.04777951  0.01058386  0.63034443    -0.75500
Zr544      Zr  0.05082419  0.00875704  0.80616552     2.70100
O545        O  0.11765424  0.00557089  0.80564756    -0.76800
O546        O  0.04810265  0.01274420  0.87296613    -0.95800
Zr547      Zr  0.99654283  0.11406195  0.75167373     2.21500
Zr548      Zr  0.49654294  0.90332497  0.75168731     2.11100
O549        O  0.05182847  0.95573386  0.75164416    -2.44500
O550        O  0.05176761  0.06186033  0.75170155    -0.76600
O551        O  0.49651830  0.95561058  0.69648012    -0.68800
O552        O  0.99645755  0.06192780  0.80701228    -2.29700
O553        O  0.99649565  0.06203575  0.69624441    -2.27500
O554        O  0.49643297  0.95549240  0.80701311    -0.70500
H555        H  0.41986416  0.93211592  0.75162013     0.81500
H556        H  0.99652766  0.08547965  0.82830558     0.82600
H557        H  0.07317875  0.93230161  0.75168828     0.84800
H558        H  0.99652267  0.08554247  0.67493667     0.82400
H559        H  0.46489520  0.03271905  0.87937640     0.45400
H560        H  0.03357318  0.98030718  0.88018995     0.44400
H561        H  0.12459624  0.02061886  0.78137351     0.44100
H562        H  0.12466784  0.97612211  0.71242067     0.42000
H563        H  0.02563103  0.98891327  0.62428596     0.45200
H564        H  0.45674609  0.04314765  0.62365945     0.39900
H565        H  0.36878138  0.02866276  0.72124583     0.46100
H566        H  0.36866870  0.97390320  0.79082880     0.42500
H567        H  0.12479566  0.99847174  0.67208008     0.47400
H568        H  0.41782827  0.01585033  0.62292068     0.46100
H569        H  0.36755681  0.00105841  0.82979984     0.46300
H570        H  0.07345674  0.00436922  0.88107255     0.46600
C571        C  0.37152437  0.76042854  0.62552439     0.00500
C572        C  0.12163807  0.26073688  0.62832196     0.00500
C573        C  0.37169012  0.26069346  0.62816595     0.00500
C574        C  0.12160912  0.76043657  0.62548987     0.00500
C575        C  0.12170721  0.26047928  0.87510178     0.00500
C576        C  0.37172719  0.76069902  0.87823286     0.00500
C577        C  0.09935164  0.22464697  0.85180654    -0.10200
C578        C  0.08186055  0.19223083  0.83399119    -0.11800
C579        C  0.08168129  0.19246790  0.66926028    -0.10200
C580        C  0.09920470  0.22501979  0.65160193    -0.11800
C581        C  0.41373085  0.82570506  0.83696172    -0.10200
C582        C  0.39556243  0.79445212  0.85501991    -0.11800
C583        C  0.07954620  0.82568270  0.66655772    -0.10200
C584        C  0.09772377  0.79427798  0.64860761    -0.11800
C585        C  0.41347691  0.82583107  0.66653226    -0.10200
C586        C  0.39537080  0.79441942  0.64854254    -0.11800
C587        C  0.39401888  0.22476784  0.65137332    -0.10200
C588        C  0.41152084  0.19229308  0.66910135    -0.11800
C589        C  0.09759109  0.79443480  0.85508553    -0.10200
C590        C  0.07939783  0.82562535  0.83697693    -0.11800
C591        C  0.34770679  0.22701373  0.60504288    -0.10200
C592        C  0.32948512  0.19572059  0.58705281    -0.11800
C593        C  0.14530217  0.22672198  0.60509910    -0.10200
C594        C  0.16341855  0.19523326  0.58715813    -0.11800
C595        C  0.14419957  0.79629803  0.60247608    -0.10200
C596        C  0.16176998  0.82885184  0.58487271    -0.11800
C597        C  0.34926111  0.79651314  0.90143359    -0.10200
C598        C  0.33167457  0.82885274  0.91922731    -0.11800
C599        C  0.16353818  0.19547824  0.91665715    -0.10200
C600        C  0.14541124  0.22669723  0.89848689    -0.11800
C601        C  0.34892151  0.79610169  0.60236089    -0.10200
C602        C  0.33129500  0.82861266  0.58475653    -0.11800
C603        C  0.14407350  0.79660641  0.90132407    -0.10200
C604        C  0.16173719  0.82899921  0.91898729    -0.11800
C605        C  0.39400013  0.22457260  0.85229737    -0.10200
C606        C  0.41158540  0.19221080  0.83452751    -0.11800
C607        C  0.34762334  0.22664304  0.89863172    -0.10200
C608        C  0.32935719  0.19539545  0.91660492    -0.11800
C609        C  0.07953649  0.32579150  0.58714045    -0.10200
C610        C  0.09774589  0.29452697  0.60516781    -0.11800
C611        C  0.08160097  0.69227451  0.58443815    -0.10200
C612        C  0.09917397  0.72465749  0.60221554    -0.11800
C613        C  0.41150743  0.69166033  0.58488195    -0.10200
C614        C  0.39395986  0.72430820  0.60247756    -0.11800
C615        C  0.09905869  0.72497952  0.90158463    -0.10200
C616        C  0.08154857  0.69252293  0.91934017    -0.11800
C617        C  0.39416715  0.72475981  0.90134774    -0.10200
C618        C  0.41159660  0.69216461  0.91906605    -0.11800
C619        C  0.07958926  0.32587331  0.91604320    -0.10200
C620        C  0.09775539  0.29441225  0.89811227    -0.11800
C621        C  0.39569798  0.29407582  0.60490226    -0.10200
C622        C  0.41401179  0.32511260  0.58682711    -0.11800
C623        C  0.39547747  0.29397975  0.89874677    -0.10200
C624        C  0.41373718  0.32526927  0.91668391    -0.11800
C625        C  0.32965029  0.69569606  0.83706927    -0.10200
C626        C  0.34786388  0.72698060  0.85504927    -0.11800
C627        C  0.16185925  0.32882665  0.83444064    -0.10200
C628        C  0.14431148  0.29628106  0.85206673    -0.11800
C629        C  0.33196115  0.32944807  0.66902010    -0.10200
C630        C  0.34939290  0.29687378  0.65127163    -0.11800
C631        C  0.16359217  0.69544746  0.66682898    -0.10200
C632        C  0.14535898  0.72663202  0.64877005    -0.11800
C633        C  0.32974537  0.69573207  0.66713383    -0.10200
C634        C  0.34781435  0.72690193  0.64894978    -0.11800
C635        C  0.33174955  0.32915199  0.83479876    -0.10200
C636        C  0.34919654  0.29648984  0.85244125    -0.11800
C637        C  0.14524682  0.72681127  0.85509426    -0.10200
C638        C  0.16343733  0.69548772  0.83708663    -0.11800
C639        C  0.14432859  0.29657585  0.65129547    -0.10200
C640        C  0.16204399  0.32900900  0.66888408    -0.11800
O641        O  0.67288251  0.42051502  0.32341038    -0.72300
O642        O  0.70605244  0.35640064  0.29199939    -0.51200
C643        C  0.68143935  0.37098272  0.31536006     0.81500
O644        O  0.67520372  0.60414832  0.17801046    -0.56900
O645        O  0.70629657  0.66859251  0.21115894    -0.49900
C646        C  0.68299977  0.65373824  0.18653844     0.73500
O647        O  0.67341583  0.42066311  0.17976859    -0.71400
O648        O  0.70593137  0.35647399  0.21176250    -0.52000
C649        C  0.68166765  0.37110514  0.18804421     0.79500
O650        O  0.67475934  0.60411553  0.32563224    -0.56600
O651        O  0.70640784  0.66857849  0.29303988    -0.49700
C652        C  0.68282648  0.65372450  0.31738133     0.76100
Zr653      Zr  0.69227670  0.51243053  0.30634940     2.54700
O654        O  0.62545717  0.51423346  0.30372765    -0.77100
O655        O  0.69329514  0.51165160  0.37328399    -0.90500
Zr656      Zr  0.69234823  0.51248256  0.19752024     2.64700
O657        O  0.62548332  0.51324821  0.20010399    -0.95500
O658        O  0.69301996  0.51140674  0.13061319    -0.77600
O659        O  0.69155757  0.45925159  0.25190642    -0.80900
O660        O  0.69140881  0.56567723  0.25196975    -2.15600
O661        O  0.81831692  0.60434184  0.32575189    -0.64300
O662        O  0.78687230  0.66875305  0.29290183    -0.48900
C663        C  0.81031642  0.65392793  0.31737581     0.74500
O664        O  0.82097757  0.42107183  0.18036135    -0.57200
O665        O  0.78771564  0.35682158  0.21150828    -0.49200
C666        C  0.81238479  0.37151173  0.18823701     0.76300
O667        O  0.81865070  0.60440094  0.17852579    -0.68600
O668        O  0.78689982  0.66872549  0.21119396    -0.47300
C669        C  0.81049786  0.65395183  0.18684546     0.77600
O670        O  0.82052944  0.42084006  0.32389480    -0.63900
O671        O  0.78784463  0.35668939  0.29203688    -0.51100
C672        C  0.81220365  0.37130140  0.31565380     0.76000
Zr673      Zr  0.80117574  0.51253240  0.30640179     2.77500
O674        O  0.86810296  0.51305167  0.30517007    -0.94700
O675        O  0.79889293  0.51095361  0.37323424    -0.75500
Zr676      Zr  0.80115482  0.51267350  0.19752975     2.70100
O677        O  0.86800307  0.51535029  0.19849077    -0.76800
O678        O  0.79805533  0.50979153  0.13071529    -0.95800
Zr679      Zr  0.74685463  0.40723327  0.25189320     2.21500
Zr680      Zr  0.74666479  0.61804114  0.25203313     2.11100
O681        O  0.80202220  0.56576494  0.25200491    -2.44500
O682        O  0.80205897  0.45941753  0.25192143    -0.76600
O683        O  0.74669636  0.56567554  0.30721021    -0.68800
O684        O  0.74682578  0.45945608  0.19660958    -2.29700
O685        O  0.74677575  0.45938128  0.30727829    -2.25900
O686        O  0.74671799  0.56587666  0.19673409    -0.70500
H687        H  0.67007118  0.58912915  0.25200385     0.81500
H688        H  0.74691371  0.43597785  0.17527885     0.82600
H689        H  0.82334739  0.58922628  0.25199288     0.84800
H690        H  0.74681065  0.43589053  0.32859237     0.82400
H691        H  0.71561380  0.49112725  0.12403372     0.45400
H692        H  0.78278669  0.54167851  0.12388374     0.44400
H693        H  0.87482843  0.49667853  0.22163524     0.44100
H694        H  0.87477744  0.54619833  0.29111291     0.42000
H695        H  0.77603800  0.53082220  0.37949216     0.45200
H696        H  0.70745814  0.47858246  0.37993354     0.39900
H697        H  0.61914379  0.49001534  0.28287176     0.46100
H698        H  0.61907140  0.54754605  0.21300509     0.42500
H699        H  0.87539470  0.52137195  0.33078479     0.47400
H700        H  0.66769680  0.50309381  0.38047476     0.46100
H701        H  0.61769423  0.51941257  0.17436320     0.46300
H702        H  0.82315197  0.51949126  0.12249069     0.46600
O703        O  0.92511524  0.41666920  0.42791036    -0.72300
O704        O  0.95652671  0.35228995  0.46082017    -0.51200
C705        C  0.93309422  0.36708211  0.43632859     0.81500
O706        O  0.57042988  0.60082255  0.43021598    -0.56900
O707        O  0.53740061  0.66483951  0.46185827    -0.49900
C708        C  0.56195581  0.65033210  0.43840625     0.73500
O709        O  0.56839410  0.41727358  0.42761422    -0.71400
O710        O  0.53687827  0.35279786  0.46032440    -0.52000
C711        C  0.56032792  0.36766377  0.43585835     0.79500
O712        O  0.92270076  0.60045743  0.43009378    -0.56600
O713        O  0.95561294  0.66462317  0.46170994    -0.49700
C714        C  0.93112851  0.65001045  0.43822823     0.76100
Zr715      Zr  0.94224121  0.50859520  0.44715539     2.54700
O716        O  0.94540927  0.51042038  0.38033003    -0.77100
O717        O  0.87531794  0.50761539  0.44728284    -0.90500
Zr718      Zr  0.55102424  0.50888330  0.44715682     2.64700
O719        O  0.54924252  0.50991999  0.38023419    -0.95500
O720        O  0.61790712  0.50728252  0.44863107    -0.77600
O721        O  0.99669577  0.45545166  0.44640036    -0.80900
O722        O  0.99654180  0.56196978  0.44635612    -2.15600
O723        O  0.92279850  0.60000249  0.07371526    -0.64300
O724        O  0.95559865  0.66434748  0.04219459    -0.48900
C725        C  0.93115812  0.64960277  0.06568590     0.74500
O726        O  0.56803959  0.41713538  0.07585081    -0.57200
O727        O  0.53711183  0.35266527  0.04255501    -0.49200
C728        C  0.56026163  0.36753075  0.06731341     0.76300
O729        O  0.57034420  0.60061150  0.07342805    -0.68600
O730        O  0.53746776  0.66479073  0.04181228    -0.47300
C731        C  0.56195938  0.65017292  0.06529288     0.77600
O732        O  0.92517656  0.41645201  0.07540074    -0.63900
O733        O  0.95676833  0.35214110  0.04259211    -0.51100
C734        C  0.93328981  0.36688804  0.06707070     0.76000
Zr735      Zr  0.94222393  0.50827268  0.05614056     2.77500
O736        O  0.94298759  0.50819230  0.12307878    -0.94700
O737        O  0.87540822  0.50587018  0.05394717    -0.75500
Zr738      Zr  0.55112134  0.50872820  0.05600811     2.70100
O739        O  0.55039181  0.51095747  0.12287097    -0.76800
O740        O  0.61791208  0.50525229  0.05310175    -0.95800
Zr741      Zr  0.99675177  0.40310295  0.00159921     2.21500
Zr742      Zr  0.99648435  0.61390599  0.00184421     2.11100
O743        O  0.99658127  0.56160005  0.05715361    -2.44500
O744        O  0.99677390  0.45532589  0.05686037    -0.76600
O745        O  0.94131003  0.56154767  0.00174032    -0.68800
O746        O  0.55195135  0.45558595  0.00155987    -2.29700
O747        O  0.94135346  0.45531256  0.00159532    -2.25900
O748        O  0.55184307  0.56201016  0.00165056    -0.70500
H749        H  0.99647400  0.58556416  0.42509416     0.81500
H750        H  0.57327122  0.43209970  0.00159484     0.82600
H751        H  0.99660897  0.58501170  0.07851904     0.84800
H752        H  0.92004365  0.43181902  0.00161125     0.82400
H753        H  0.62420399  0.48113523  0.46839332     0.45400
H754        H  0.62487889  0.53654641  0.03735808     0.44400
H755        H  0.52552483  0.49799043  0.12959894     0.44100
H756        H  0.95704115  0.54123716  0.12998623     0.42000
H757        H  0.86906880  0.52349855  0.03030255     0.45200
H758        H  0.86853399  0.47497487  0.46181709     0.39900
H759        H  0.96730137  0.48818373  0.37423549     0.46100
H760        H  0.53382786  0.54183531  0.37382344     0.42500
H761        H  0.91733928  0.51654564  0.13021931     0.47400
H762        H  0.86847494  0.49823055  0.42171004     0.46100
H763        H  0.57440742  0.52055441  0.37277501     0.46300
H764        H  0.62610460  0.51576282  0.07806997     0.46600
C765        C  0.87156397  0.26039633  0.37551408     0.00500
O766        O  0.81792498  0.10404022  0.42790584    -0.72300
O767        O  0.78681195  0.16849277  0.46106224    -0.51200
C768        C  0.81005485  0.15364484  0.43638381     0.81500
O769        O  0.67290157  0.92059992  0.43016408    -0.56900
O770        O  0.70586856  0.85635614  0.46162240    -0.49900
C771        C  0.68136661  0.87103599  0.43817409     0.73500
O772        O  0.67463893  0.10411424  0.42837231    -0.71400
O773        O  0.70649029  0.16854772  0.46079312    -0.52000
C774        C  0.68283796  0.15372207  0.43649712     0.79500
O775        O  0.82050983  0.92045906  0.43036831    -0.56600
O776        O  0.78750536  0.85628185  0.46182860    -0.49700
C777        C  0.81205135  0.87091247  0.43841358     0.76100
Zr778      Zr  0.80113517  0.01226771  0.44761708     2.54700
O779        O  0.79980213  0.00983564  0.38076802    -0.77100
O780        O  0.86804678  0.01334733  0.44920630    -0.90500
Zr781      Zr  0.69223961  0.01240688  0.44748468     2.64700
O782        O  0.69441332  0.01233572  0.38059316    -0.95500
O783        O  0.62535809  0.01389029  0.44819172    -0.77600
O784        O  0.74668743  0.06551509  0.44675320    -0.80900
O785        O  0.74667576  0.95923662  0.44658114    -2.15600
O786        O  0.82014388  0.92033281  0.07376240    -0.64300
O787        O  0.78726137  0.85617006  0.04212163    -0.48900
C788        C  0.81170508  0.87077363  0.06564303     0.74500
O789        O  0.67488563  0.10383556  0.07600107    -0.57200
O790        O  0.70608828  0.16820212  0.04289067    -0.49200
C791        C  0.68275685  0.15340631  0.06748870     0.76300
O792        O  0.67303835  0.92054172  0.07406263    -0.68600
O793        O  0.70559646  0.85642848  0.04202638    -0.47300
C794        C  0.68131573  0.87100905  0.06574008     0.77600
O795        O  0.81835894  0.10429761  0.07557940    -0.63900
O796        O  0.78659973  0.16865661  0.04297686    -0.51100
C797        C  0.81019138  0.15388589  0.06733188     0.76000
Zr798      Zr  0.80112554  0.01241075  0.05641395     2.77500
O799        O  0.80095201  0.01203024  0.12335996    -0.94700
O800        O  0.86793800  0.01459681  0.05364269    -0.75500
Zr801      Zr  0.69219852  0.01229035  0.05640472     2.70100
O802        O  0.69402732  0.01048936  0.12326645    -0.76800
O803        O  0.62535158  0.01499611  0.05423126    -0.95800
Zr804      Zr  0.74655156  0.11786484  0.00196287     2.21500
Zr805      Zr  0.74658301  0.90708027  0.00193979     2.11100
O806        O  0.74666617  0.95929092  0.05731717    -2.44500
O807        O  0.74661604  0.06554461  0.05718811    -0.76600
O808        O  0.80191673  0.95907131  0.00203273    -0.68800
O809        O  0.69128474  0.06549652  0.00198139    -2.29700
O810        O  0.80193985  0.06561021  0.00200526    -2.25900
O811        O  0.69127654  0.95915220  0.00192438    -0.70500
H812        H  0.74674033  0.93575449  0.42525273     0.81500
H813        H  0.66993109  0.08892439  0.00201773     0.82600
H814        H  0.74663155  0.93582282  0.07864309     0.84800
H815        H  0.82323598  0.08912646  0.00202244     0.82400
H816        H  0.61883958  0.02648806  0.47320674     0.45400
H817        H  0.61824101  0.98177675  0.04044805     0.44400
H818        H  0.71671841  0.03061768  0.12971706     0.44100
H819        H  0.78526001  0.98065251  0.13025199     0.42000
H820        H  0.87428545  0.99045183  0.03275875     0.45200
H821        H  0.87448944  0.04517194  0.46469462     0.39900
H822        H  0.77619943  0.02734936  0.37413468     0.46100
H823        H  0.70771122  0.97846634  0.37397625     0.42500
H824        H  0.82614067  0.00068041  0.13026076     0.47400
H825        H  0.87542218  0.02414411  0.42404201     0.46100
H826        H  0.66871506  0.00550864  0.37293301     0.46300
H827        H  0.61753149  0.00767559  0.07982441     0.46600
C828        C  0.62148149  0.76072021  0.37829978     0.00500
O829        O  0.92263439  0.10067368  0.18015462    -0.72300
O830        O  0.95568929  0.16483882  0.21159917    -0.51200
C831        C  0.93112245  0.15020872  0.18821657     0.81500
O832        O  0.92506751  0.91706593  0.32564127    -0.56900
O833        O  0.95635628  0.85265654  0.29261516    -0.49900
C834        C  0.93301035  0.86747577  0.31719946     0.73500
O835        O  0.92261124  0.10061817  0.32328146    -0.71400
O836        O  0.95581184  0.16477364  0.29200947    -0.52000
C837        C  0.93118457  0.15014941  0.31533778     0.79500
O838        O  0.92458612  0.91720654  0.17800460    -0.56600
O839        O  0.95631505  0.85284374  0.21063486    -0.49700
C840        C  0.93273837  0.86763711  0.18626773     0.76100
Zr841      Zr  0.94208485  0.00883058  0.19724873     2.54700
O842        O  0.87524217  0.00715291  0.19912654    -0.77100
O843        O  0.94361938  0.00917078  0.13033148    -0.90500
Zr844      Zr  0.94200954  0.00883808  0.30608759     2.64700
O845        O  0.87512034  0.00789047  0.30406747    -0.95500
O846        O  0.94269724  0.01138662  0.37298811    -0.77600
O847        O  0.94126287  0.06202939  0.25167359    -0.80900
O848        O  0.94117874  0.95559562  0.25165769    -2.15600
O849        O  0.56819647  0.91708537  0.17786134    -0.64300
O850        O  0.53680674  0.85270078  0.21076773    -0.48900
C851        C  0.56022507  0.86750093  0.18626166     0.74500
O852        O  0.57063443  0.10059693  0.32289694    -0.57200
O853        O  0.53755400  0.16486581  0.29157201    -0.49200
C854        C  0.56218681  0.15017514  0.31487051     0.76300
O855        O  0.56802489  0.91697934  0.32556586    -0.68600
O856        O  0.53677054  0.85254378  0.29256891    -0.47300
C857        C  0.56010793  0.86737350  0.31715612     0.77600
O858        O  0.57048552  0.10074319  0.18015648    -0.63900
O859        O  0.53743191  0.16488600  0.21165277    -0.51100
C860        C  0.56202912  0.15029589  0.18828041     0.76000
Zr861      Zr  0.55090450  0.00889103  0.19716109     2.77500
O862        O  0.61782604  0.00838144  0.19752910    -0.94700
O863        O  0.54777937  0.01058395  0.13034436    -0.75500
Zr864      Zr  0.55082413  0.00875697  0.30616550     2.70100
O865        O  0.61765413  0.00557099  0.30564776    -0.76800
O866        O  0.54810276  0.01274393  0.37296610    -0.95800
Zr867      Zr  0.49654281  0.11406186  0.25167379     2.21500
Zr868      Zr  0.99654292  0.90332498  0.25168734     2.11100
O869        O  0.55182859  0.95573386  0.25164412    -2.44500
O870        O  0.55176755  0.06186025  0.25170149    -0.76600
O871        O  0.99651833  0.95561065  0.19648021    -0.68800
O872        O  0.49645755  0.06192791  0.30701250    -2.29700
O873        O  0.49649570  0.06203576  0.19624441    -2.27500
O874        O  0.99643294  0.95549240  0.30701316    -0.70500
H875        H  0.91986427  0.93211568  0.25162030     0.81500
H876        H  0.49652777  0.08547988  0.32830592     0.82600
H877        H  0.57317894  0.93230168  0.25168823     0.84800
H878        H  0.49652273  0.08554251  0.17493667     0.82400
H879        H  0.96489525  0.03271866  0.37937636     0.45400
H880        H  0.53357337  0.98030684  0.38018992     0.44400
H881        H  0.62459618  0.02061882  0.28137367     0.44100
H882        H  0.62466790  0.97612196  0.21242076     0.42000
H883        H  0.52563111  0.98891291  0.12428585     0.45200
H884        H  0.95674630  0.04314728  0.12365949     0.39900
H885        H  0.86878140  0.02866274  0.22124564     0.46100
H886        H  0.86866881  0.97390282  0.29082878     0.42500
H887        H  0.62479576  0.99847119  0.17208011     0.47400
H888        H  0.91782838  0.01585012  0.12292059     0.46100
H889        H  0.86755688  0.00105820  0.32979971     0.46300
H890        H  0.57345685  0.00436903  0.38107241     0.46600
C891        C  0.87152441  0.76042856  0.12552436     0.00500
C892        C  0.62163815  0.26073690  0.12832194     0.00500
C893        C  0.87169015  0.26069344  0.12816600     0.00500
C894        C  0.62160915  0.76043658  0.12548985     0.00500
C895        C  0.62170713  0.26047931  0.37510184     0.00500
C896        C  0.87172719  0.76069894  0.37823283     0.00500
C897        C  0.59935154  0.22464694  0.35180666    -0.10200
C898        C  0.58186060  0.19223059  0.33399134    -0.11800
C899        C  0.58168132  0.19246791  0.16926026    -0.10200
C900        C  0.59920478  0.22501984  0.15160194    -0.11800
C901        C  0.91373078  0.82570500  0.33696165    -0.10200
C902        C  0.89556244  0.79445205  0.35501992    -0.11800
C903        C  0.57954617  0.82568279  0.16655760    -0.10200
C904        C  0.59772383  0.79427811  0.14860756    -0.11800
C905        C  0.91347683  0.82583115  0.16653233    -0.10200
C906        C  0.89537074  0.79441955  0.14854256    -0.11800
C907        C  0.89401892  0.22476780  0.15137335    -0.10200
C908        C  0.91152101  0.19229309  0.16910135    -0.11800
C909        C  0.59759110  0.79443469  0.35508546    -0.10200
C910        C  0.57939783  0.82562519  0.33697683    -0.11800
C911        C  0.84770680  0.22701381  0.10504285    -0.10200
C912        C  0.82948505  0.19572076  0.08705276    -0.11800
C913        C  0.64530215  0.22672187  0.10509905    -0.10200
C914        C  0.66341850  0.19523308  0.08715813    -0.11800
C915        C  0.64419962  0.79629794  0.10247600    -0.10200
C916        C  0.66177006  0.82885178  0.08487266    -0.11800
C917        C  0.84926112  0.79651310  0.40143355    -0.10200
C918        C  0.83167452  0.82885260  0.41922728    -0.11800
C919        C  0.66353824  0.19547832  0.41665709    -0.10200
C920        C  0.64541119  0.22669726  0.39848690    -0.11800
C921        C  0.84892160  0.79610160  0.10236080    -0.10200
C922        C  0.83129500  0.82861265  0.08475659    -0.11800
C923        C  0.64407348  0.79660651  0.40132397    -0.10200
C924        C  0.66173713  0.82899929  0.41898723    -0.11800
C925        C  0.89400019  0.22457268  0.35229728    -0.10200
C926        C  0.91158533  0.19221074  0.33452741    -0.11800
C927        C  0.84762342  0.22664296  0.39863161    -0.10200
C928        C  0.82935719  0.19539546  0.41660482    -0.11800
C929        C  0.57953654  0.32579154  0.08714040    -0.10200
C930        C  0.59774598  0.29452711  0.10516782    -0.11800
C931        C  0.58160095  0.69227450  0.08443817    -0.10200
C932        C  0.59917391  0.72465743  0.10221564    -0.11800
C933        C  0.91150743  0.69166025  0.08488198    -0.10200
C934        C  0.89395994  0.72430819  0.10247760    -0.11800
C935        C  0.59905876  0.72497957  0.40158459    -0.10200
C936        C  0.58154866  0.69252300  0.41934016    -0.11800
C937        C  0.89416714  0.72475972  0.40134771    -0.10200
C938        C  0.91159667  0.69216462  0.41906604    -0.11800
C939        C  0.57958914  0.32587331  0.41604316    -0.10200
C940        C  0.59775534  0.29441226  0.39811231    -0.11800
C941        C  0.89569809  0.29407590  0.10490238    -0.10200
C942        C  0.91401186  0.32511265  0.08682716    -0.11800
C943        C  0.89547760  0.29397966  0.39874680    -0.10200
C944        C  0.91373728  0.32526918  0.41668394    -0.11800
C945        C  0.82965020  0.69569596  0.33706932    -0.10200
C946        C  0.84786388  0.72698050  0.35504925    -0.11800
C947        C  0.66185924  0.32882655  0.33444067    -0.10200
C948        C  0.64431143  0.29628107  0.35206675    -0.11800
C949        C  0.83196118  0.32944795  0.16902024    -0.10200
C950        C  0.84939288  0.29687364  0.15127172    -0.11800
C951        C  0.66359213  0.69544748  0.16682905    -0.10200
C952        C  0.64535900  0.72663206  0.14877007    -0.11800
C953        C  0.82974525  0.69573219  0.16713374    -0.10200
C954        C  0.84781430  0.72690201  0.14894971    -0.11800
C955        C  0.83174962  0.32915212  0.33479882    -0.10200
C956        C  0.84919665  0.29648994  0.35244126    -0.11800
C957        C  0.64524681  0.72681119  0.35509420    -0.10200
C958        C  0.66343735  0.69548759  0.33708661    -0.11800
C959        C  0.64432873  0.29657581  0.15129541    -0.10200
C960        C  0.66204401  0.32900895  0.16888408    -0.11800
O961        O  0.67288239  0.42051511  0.82341032    -0.72300
O962        O  0.70605248  0.35640079  0.79199944    -0.51200
C963        C  0.68143933  0.37098281  0.81536005     0.81500
O964        O  0.67520389  0.60414828  0.67801031    -0.56900
O965        O  0.70629649  0.66859249  0.71115901    -0.49900
C966        C  0.68299984  0.65373822  0.68653837     0.73500
O967        O  0.67341591  0.42066316  0.67976855    -0.71400
O968        O  0.70593133  0.35647409  0.71176260    -0.52000
C969        C  0.68166768  0.37110518  0.68804423     0.79500
O970        O  0.67475935  0.60411563  0.82563226    -0.56600
O971        O  0.70640787  0.66857855  0.79303988    -0.49700
C972        C  0.68282651  0.65372459  0.81738133     0.76100
Zr973      Zr  0.69227668  0.51243056  0.80634942     2.54700
O974        O  0.62545713  0.51423337  0.80372772    -0.77100
O975        O  0.69329512  0.51165153  0.87328395    -0.90500
Zr976      Zr  0.69234823  0.51248252  0.69752029     2.64700
O977        O  0.62548331  0.51324810  0.70010401    -0.95500
O978        O  0.69302017  0.51140702  0.63061325    -0.77600
O979        O  0.69155750  0.45925155  0.75190649    -0.80900
O980        O  0.69140901  0.56567709  0.75196978    -2.15600
O981        O  0.81831685  0.60434196  0.82575189    -0.64300
O982        O  0.78687225  0.66875325  0.79290186    -0.48900
C983        C  0.81031641  0.65392806  0.81737580     0.74500
O984        O  0.82097751  0.42107184  0.68036138    -0.57200
O985        O  0.78771560  0.35682155  0.71150830    -0.49200
C986        C  0.81238471  0.37151173  0.68823699     0.76300
O987        O  0.81865064  0.60440091  0.67852591    -0.68600
O988        O  0.78689984  0.66872565  0.71119397    -0.47300
C989        C  0.81049788  0.65395185  0.68684553     0.77600
O990        O  0.82052941  0.42083998  0.82389484    -0.63900
O991        O  0.78784470  0.35668935  0.79203677    -0.51100
C992        C  0.81220369  0.37130133  0.81565375     0.76000
Zr993      Zr  0.80117576  0.51253245  0.80640179     2.77500
O994        O  0.86810304  0.51305161  0.80516990    -0.94700
O995        O  0.79889290  0.51095391  0.87323424    -0.75500
Zr996      Zr  0.80115478  0.51267348  0.69752978     2.70100
O997        O  0.86800302  0.51535018  0.69849056    -0.76800
O998        O  0.79805526  0.50979178  0.63071534    -0.95800
Zr999      Zr  0.74685464  0.40723337  0.75189328     2.21500
Zr1000     Zr  0.74666485  0.61804122  0.75203308     2.11100
O1001       O  0.80202230  0.56576502  0.75200490    -2.44500
O1002       O  0.80205894  0.45941761  0.75192146    -0.76600
O1003       O  0.74669635  0.56567555  0.80721015    -0.68800
O1004       O  0.74682575  0.45945602  0.69660962    -2.29700
O1005       O  0.74677575  0.45938135  0.80727841    -2.25900
O1006       O  0.74671797  0.56587664  0.69673401    -0.70500
H1007       H  0.67007149  0.58912889  0.75200391     0.81500
H1008       H  0.74691369  0.43597773  0.67527893     0.82600
H1009       H  0.82334760  0.58922623  0.75199292     0.84800
H1010       H  0.74681066  0.43589054  0.82859262     0.82400
H1011       H  0.71561383  0.49112708  0.62403379     0.45400
H1012       H  0.78278670  0.54167885  0.62388383     0.44400
H1013       H  0.87482845  0.49667861  0.72163510     0.44100
H1014       H  0.87477757  0.54619837  0.79111281     0.42000
H1015       H  0.77603786  0.53082219  0.87949214     0.45200
H1016       H  0.70745811  0.47858234  0.87993344     0.39900
H1017       H  0.61914375  0.49001524  0.78287184     0.46100
H1018       H  0.61907141  0.54754595  0.71300506     0.42500
H1019       H  0.87539486  0.52137176  0.83078464     0.47400
H1020       H  0.66769676  0.50309372  0.88047467     0.46100
H1021       H  0.61769422  0.51941243  0.67436317     0.46300
H1022       H  0.82315189  0.51949145  0.62249077     0.46600
O1023       O  0.92511518  0.41666919  0.92791042    -0.72300
O1024       O  0.95652676  0.35228988  0.96082009    -0.51200
C1025       C  0.93309420  0.36708208  0.93632856     0.81500
O1026       O  0.57042986  0.60082247  0.93021588    -0.56900
O1027       O  0.53740056  0.66483940  0.96185817    -0.49900
C1028       C  0.56195579  0.65033200  0.93840617     0.73500
O1029       O  0.56839413  0.41727357  0.92761422    -0.71400
O1030       O  0.53687827  0.35279794  0.96032443    -0.52000
C1031       C  0.56032793  0.36766380  0.93585838     0.79500
O1032       O  0.92270085  0.60045747  0.93009359    -0.56600
O1033       O  0.95561291  0.66462316  0.96170989    -0.49700
C1034       C  0.93112852  0.65001048  0.93822815     0.76100
Zr1035     Zr  0.94224122  0.50859522  0.94715534     2.54700
O1036       O  0.94540925  0.51042065  0.88033001    -0.77100
O1037       O  0.87531803  0.50761574  0.94728259    -0.90500
Zr1038     Zr  0.55102429  0.50888328  0.94715679     2.64700
O1039       O  0.54924249  0.50992025  0.88023410    -0.95500
O1040       O  0.61790719  0.50728243  0.94863087    -0.77600
O1041       O  0.99669573  0.45545167  0.94640034    -0.80900
O1042       O  0.99654179  0.56196987  0.94635596    -2.15600
O1043       O  0.92279845  0.60000245  0.57371532    -0.64300
O1044       O  0.95559866  0.66434735  0.54219463    -0.48900
C1045       C  0.93115809  0.64960272  0.56568592     0.74500
O1046       O  0.56803972  0.41713539  0.57585086    -0.57200
O1047       O  0.53711194  0.35266533  0.54255505    -0.49200
C1048       C  0.56026172  0.36753078  0.56731348     0.76300
O1049       O  0.57034416  0.60061150  0.57342814    -0.68600
O1050       O  0.53746771  0.66479070  0.54181235    -0.47300
C1051       C  0.56195933  0.65017292  0.56529295     0.77600
O1052       O  0.92517654  0.41645197  0.57540078    -0.63900
O1053       O  0.95676831  0.35214105  0.54259216    -0.51100
C1054       C  0.93328980  0.36688798  0.56707075     0.76000
Zr1055     Zr  0.94222394  0.50827268  0.55614053     2.77500
O1056       O  0.94298757  0.50819261  0.62307875    -0.94700
O1057       O  0.87540829  0.50587005  0.55394724    -0.75500
Zr1058     Zr  0.55112133  0.50872820  0.55600819     2.70100
O1059       O  0.55039176  0.51095737  0.62287105    -0.76800
O1060       O  0.61791208  0.50525255  0.55310184    -0.95800
Zr1061     Zr  0.99675179  0.40310294  0.50159925     2.21500
Zr1062     Zr  0.99648444  0.61390599  0.50184426     2.11100
O1063       O  0.99658130  0.56159989  0.55715354    -2.44500
O1064       O  0.99677393  0.45532599  0.55686040    -0.76600
O1065       O  0.94131003  0.56154784  0.50174033    -0.68800
O1066       O  0.55195124  0.45558613  0.50155990    -2.29700
O1067       O  0.94135351  0.45531259  0.50159530    -2.25900
O1068       O  0.55184303  0.56201009  0.50165061    -0.70500
H1069       H  0.99647403  0.58556426  0.92509384     0.81500
H1070       H  0.57327107  0.43210007  0.50159484     0.82600
H1071       H  0.99660894  0.58501157  0.57851894     0.84800
H1072       H  0.92004372  0.43181927  0.50161114     0.82400
H1073       H  0.62420408  0.48113556  0.96839338     0.45400
H1074       H  0.62487879  0.53654644  0.53735800     0.44400
H1075       H  0.52552478  0.49799032  0.62959901     0.44100
H1076       H  0.95704112  0.54123748  0.62998616     0.42000
H1077       H  0.86906888  0.52349844  0.53030263     0.45200
H1078       H  0.86853413  0.47497545  0.96181704     0.39900
H1079       H  0.96730135  0.48818400  0.87423550     0.46100
H1080       H  0.53382787  0.54183559  0.87382338     0.42500
H1081       H  0.91733928  0.51654594  0.63021931     0.47400
H1082       H  0.86847508  0.49823054  0.92170976     0.46100
H1083       H  0.57440735  0.52055459  0.87277484     0.46300
H1084       H  0.62610459  0.51576343  0.57806999     0.46600
C1085       C  0.87156392  0.26039630  0.87551413     0.00500
O1086       O  0.81792496  0.10404018  0.92790588    -0.72300
O1087       O  0.78681195  0.16849275  0.96106227    -0.51200
C1088       C  0.81005484  0.15364479  0.93638386     0.81500
O1089       O  0.67290173  0.92059990  0.93016391    -0.56900
O1090       O  0.70586862  0.85635618  0.96162240    -0.49900
C1091       C  0.68136670  0.87103596  0.93817403     0.73500
O1092       O  0.67463897  0.10411414  0.92837220    -0.71400
O1093       O  0.70649021  0.16854760  0.96079317    -0.52000
C1094       C  0.68283792  0.15372196  0.93649712     0.79500
O1095       O  0.82050985  0.92045914  0.93036836    -0.56600
O1096       O  0.78750528  0.85628192  0.96182851    -0.49700
C1097       C  0.81205133  0.87091257  0.93841357     0.76100
Zr1098     Zr  0.80113520  0.01226769  0.94761711     2.54700
O1099       O  0.79980209  0.00983553  0.88076803    -0.77100
O1100       O  0.86804676  0.01334762  0.94920638    -0.90500
Zr1101     Zr  0.69223973  0.01240687  0.94748462     2.64700
O1102       O  0.69441330  0.01233598  0.88059314    -0.95500
O1103       O  0.62535827  0.01389056  0.94819179    -0.77600
O1104       O  0.74668754  0.06551508  0.94675322    -0.80900
O1105       O  0.74667582  0.95923665  0.94658122    -2.15600
O1106       O  0.82014401  0.92033273  0.57376216    -0.64300
O1107       O  0.78726137  0.85617001  0.54212150    -0.48900
C1108       C  0.81170513  0.87077358  0.56564285     0.74500
O1109       O  0.67488568  0.10383563  0.57600116    -0.57200
O1110       O  0.70608824  0.16820211  0.54289059    -0.49200
C1111       C  0.68275688  0.15340640  0.56748872     0.76300
O1112       O  0.67303834  0.92054167  0.57406264    -0.68600
O1113       O  0.70559657  0.85642843  0.54202652    -0.47300
C1114       C  0.68131577  0.87100902  0.56574015     0.77600
O1115       O  0.81835894  0.10429750  0.57557947    -0.63900
O1116       O  0.78659971  0.16865651  0.54297694    -0.51100
C1117       C  0.81019139  0.15388577  0.56733195     0.76000
Zr1118     Zr  0.80112560  0.01241069  0.55641397     2.77500
O1119       O  0.80095199  0.01203047  0.62335999    -0.94700
O1120       O  0.86793806  0.01459671  0.55364276    -0.75500
Zr1121     Zr  0.69219856  0.01229033  0.55640483     2.70100
O1122       O  0.69402730  0.01048926  0.62326652    -0.76800
O1123       O  0.62535169  0.01499643  0.55423137    -0.95800
Zr1124     Zr  0.74655154  0.11786479  0.50196289     2.21500
Zr1125     Zr  0.74658299  0.90708028  0.50193975     2.11100
O1126       O  0.74666621  0.95929083  0.55731719    -2.44500
O1127       O  0.74661609  0.06554450  0.55718815    -0.76600
O1128       O  0.80191667  0.95907140  0.50203269    -0.68800
O1129       O  0.69128469  0.06549648  0.50198150    -2.29700
O1130       O  0.80193984  0.06561017  0.50200525    -2.25900
O1131       O  0.69127654  0.95915228  0.50192445    -0.70500
H1132       H  0.74674036  0.93575457  0.92525280     0.81500
H1133       H  0.66993105  0.08892435  0.50201787     0.82600
H1134       H  0.74663155  0.93582268  0.57864308     0.84800
H1135       H  0.82323595  0.08912645  0.50202235     0.82400
H1136       H  0.61883985  0.02648847  0.97320680     0.45400
H1137       H  0.61824111  0.98177721  0.54044798     0.44400
H1138       H  0.71671839  0.03061758  0.62971712     0.44100
H1139       H  0.78526000  0.98065270  0.63025204     0.42000
H1140       H  0.87428546  0.99045172  0.53275881     0.45200
H1141       H  0.87448931  0.04517238  0.96469462     0.39900
H1142       H  0.77619938  0.02734926  0.87413473     0.46100
H1143       H  0.70771130  0.97846669  0.87397618     0.42500
H1144       H  0.82614067  0.00068078  0.63026087     0.47400
H1145       H  0.87542216  0.02414425  0.92404209     0.46100
H1146       H  0.66871503  0.00550871  0.87293311     0.46300
H1147       H  0.61753159  0.00767562  0.57982455     0.46600
C1148       C  0.62148145  0.76072020  0.87829986     0.00500
O1149       O  0.92263450  0.10067379  0.68015461    -0.72300
O1150       O  0.95568923  0.16483904  0.71159923    -0.51200
C1151       C  0.93112244  0.15020885  0.68821661     0.81500
O1152       O  0.92506761  0.91706607  0.82564144    -0.56900
O1153       O  0.95635623  0.85265668  0.79261520    -0.49900
C1154       C  0.93301036  0.86747591  0.81719955     0.73500
O1155       O  0.92261148  0.10061825  0.82328154    -0.71400
O1156       O  0.95581205  0.16477376  0.79200955    -0.52000
C1157       C  0.93118479  0.15014950  0.81533788     0.79500
O1158       O  0.92458631  0.91720651  0.67800446    -0.56600
O1159       O  0.95631496  0.85284364  0.71063495    -0.49700
C1160       C  0.93273842  0.86763705  0.68626770     0.76100
Zr1161     Zr  0.94208484  0.00883065  0.69724868     2.54700
O1162       O  0.87524213  0.00715322  0.69912662    -0.77100
O1163       O  0.94361936  0.00917108  0.63033143    -0.90500
Zr1164     Zr  0.94200962  0.00883807  0.80608759     2.64700
O1165       O  0.87512041  0.00789034  0.80406728    -0.95500
O1166       O  0.94269722  0.01138653  0.87298815    -0.77600
O1167       O  0.94126290  0.06202939  0.75167359    -0.80900
O1168       O  0.94117874  0.95559576  0.75165762    -2.15600
O1169       O  0.56819643  0.91708535  0.67786144    -0.64300
O1170       O  0.53680673  0.85270067  0.71076779    -0.48900
C1171       C  0.56022508  0.86750087  0.68626175     0.74500
O1172       O  0.57063440  0.10059708  0.82289695    -0.57200
O1173       O  0.53755394  0.16486589  0.79157198    -0.49200
C1174       C  0.56218678  0.15017527  0.81487047     0.76300
O1175       O  0.56802496  0.91697946  0.82556578    -0.68600
O1176       O  0.53677053  0.85254381  0.79256899    -0.47300
C1177       C  0.56010796  0.86737360  0.81715612     0.77600
O1178       O  0.57048550  0.10074327  0.68015658    -0.63900
O1179       O  0.53743195  0.16488621  0.71165281    -0.51100
C1180       C  0.56202915  0.15029598  0.68828050     0.76000
Zr1181     Zr  0.55090446  0.00889106  0.69716115     2.77500
O1182       O  0.61782599  0.00838172  0.69752916    -0.94700
O1183       O  0.54777933  0.01058385  0.63034442    -0.75500
Zr1184     Zr  0.55082413  0.00875704  0.80616553     2.70100
O1185       O  0.61765422  0.00557092  0.80564754    -0.76800
O1186       O  0.54810274  0.01274419  0.87296614    -0.95800
Zr1187     Zr  0.49654279  0.11406203  0.75167374     2.21500
Zr1188     Zr  0.99654289  0.90332496  0.75168731     2.11100
O1189       O  0.55182860  0.95573380  0.75164416    -2.44500
O1190       O  0.55176748  0.06186029  0.75170155    -0.76600
O1191       O  0.99651831  0.95561063  0.69648014    -0.68800
O1192       O  0.49645753  0.06192802  0.80701238    -2.29700
O1193       O  0.49649568  0.06203573  0.69624447    -2.27500
O1194       O  0.99643304  0.95549239  0.80701310    -0.70500
H1195       H  0.91986419  0.93211593  0.75162015     0.81500
H1196       H  0.49652771  0.08548008  0.82830570     0.82600
H1197       H  0.57317903  0.93230150  0.75168828     0.84800
H1198       H  0.49652274  0.08554232  0.67493683     0.82400
H1199       H  0.96489509  0.03271885  0.87937646     0.45400
H1200       H  0.53357329  0.98030718  0.88019000     0.44400
H1201       H  0.62459626  0.02061886  0.78137350     0.44100
H1202       H  0.62466786  0.97612209  0.71242068     0.42000
H1203       H  0.52563094  0.98891308  0.62428596     0.45200
H1204       H  0.95674620  0.04314765  0.62365949     0.39900
H1205       H  0.86878142  0.02866296  0.72124577     0.46100
H1206       H  0.86866888  0.97390262  0.79082866     0.42500
H1207       H  0.62479570  0.99847174  0.67208011     0.47400
H1208       H  0.91782838  0.01585033  0.62292061     0.46100
H1209       H  0.86755684  0.00105832  0.82979949     0.46300
H1210       H  0.57345685  0.00436921  0.88107248     0.46600
C1211       C  0.87152440  0.76042855  0.62552439     0.00500
C1212       C  0.62163816  0.26073688  0.62832196     0.00500
C1213       C  0.87169013  0.26069345  0.62816596     0.00500
C1214       C  0.62160913  0.76043656  0.62548987     0.00500
C1215       C  0.62170721  0.26047930  0.87510180     0.00500
C1216       C  0.87172720  0.76069902  0.87823287     0.00500
C1217       C  0.59935170  0.22464694  0.85180653    -0.10200
C1218       C  0.58186064  0.19223078  0.83399117    -0.11800
C1219       C  0.58168137  0.19246791  0.66926031    -0.10200
C1220       C  0.59920480  0.22501977  0.65160194    -0.11800
C1221       C  0.91373076  0.82570512  0.83696170    -0.10200
C1222       C  0.89556241  0.79445212  0.85501993    -0.11800
C1223       C  0.57954625  0.82568275  0.66655773    -0.10200
C1224       C  0.59772384  0.79427803  0.64860763    -0.11800
C1225       C  0.91347690  0.82583110  0.66653229    -0.10200
C1226       C  0.89537082  0.79441941  0.64854256    -0.11800
C1227       C  0.89401893  0.22476784  0.65137331    -0.10200
C1228       C  0.91152094  0.19229310  0.66910134    -0.11800
C1229       C  0.59759105  0.79443475  0.85508556    -0.10200
C1230       C  0.57939787  0.82562537  0.83697693    -0.11800
C1231       C  0.84770679  0.22701373  0.60504288    -0.10200
C1232       C  0.82948510  0.19572060  0.58705279    -0.11800
C1233       C  0.64530227  0.22672199  0.60509911    -0.10200
C1234       C  0.66341863  0.19523325  0.58715815    -0.11800
C1235       C  0.64419960  0.79629798  0.60247607    -0.10200
C1236       C  0.66177005  0.82885179  0.58487273    -0.11800
C1237       C  0.84926110  0.79651316  0.90143359    -0.10200
C1238       C  0.83167454  0.82885275  0.91922729    -0.11800
C1239       C  0.66353822  0.19547826  0.91665715    -0.10200
C1240       C  0.64541126  0.22669726  0.89848691    -0.11800
C1241       C  0.84892159  0.79610174  0.60236086    -0.10200
C1242       C  0.83129502  0.82861264  0.58475650    -0.11800
C1243       C  0.64407347  0.79660645  0.90132405    -0.10200
C1244       C  0.66173720  0.82899922  0.91898725    -0.11800
C1245       C  0.89400020  0.22457259  0.85229738    -0.10200
C1246       C  0.91158550  0.19221081  0.83452752    -0.11800
C1247       C  0.84762336  0.22664303  0.89863172    -0.10200
C1248       C  0.82935717  0.19539545  0.91660488    -0.11800
C1249       C  0.57953655  0.32579151  0.58714046    -0.10200
C1250       C  0.59774598  0.29452698  0.60516780    -0.11800
C1251       C  0.58160090  0.69227454  0.58443818    -0.10200
C1252       C  0.59917388  0.72465754  0.60221558    -0.11800
C1253       C  0.91150737  0.69166029  0.58488190    -0.10200
C1254       C  0.89395987  0.72430819  0.60247757    -0.11800
C1255       C  0.59905876  0.72497951  0.90158464    -0.10200
C1256       C  0.58154866  0.69252291  0.91934018    -0.11800
C1257       C  0.89416720  0.72475989  0.90134774    -0.10200
C1258       C  0.91159667  0.69216473  0.91906607    -0.11800
C1259       C  0.57958911  0.32587325  0.91604316    -0.10200
C1260       C  0.59775529  0.29441222  0.89811226    -0.11800
C1261       C  0.89569802  0.29407579  0.60490228    -0.10200
C1262       C  0.91401184  0.32511258  0.58682715    -0.11800
C1263       C  0.89547752  0.29397972  0.89874677    -0.10200
C1264       C  0.91373726  0.32526923  0.91668388    -0.11800
C1265       C  0.82965031  0.69569607  0.83706925    -0.10200
C1266       C  0.84786392  0.72698057  0.85504925    -0.11800
C1267       C  0.66185929  0.32882664  0.83444066    -0.10200
C1268       C  0.64431150  0.29628108  0.85206676    -0.11800
C1269       C  0.83196112  0.32944805  0.66902012    -0.10200
C1270       C  0.84939289  0.29687377  0.65127163    -0.11800
C1271       C  0.66359226  0.69544749  0.66682896    -0.10200
C1272       C  0.64535901  0.72663199  0.64877003    -0.11800
C1273       C  0.82974537  0.69573207  0.66713382    -0.10200
C1274       C  0.84781434  0.72690197  0.64894976    -0.11800
C1275       C  0.83174965  0.32915200  0.83479874    -0.10200
C1276       C  0.84919661  0.29648984  0.85244125    -0.11800
C1277       C  0.64524680  0.72681125  0.85509423    -0.10200
C1278       C  0.66343737  0.69548774  0.83708663    -0.11800
C1279       C  0.64432868  0.29657583  0.65129546    -0.10200
C1280       C  0.66204404  0.32900899  0.66888408    -0.11800
loop_ 
_geom_bond_atom_site_label_1 
_geom_bond_atom_site_label_2 
_geom_bond_distance 
_geom_bond_site_symmetry_2 
_ccdc_geom_bond_type 
O1          Zr13   2.440       .  S
O1            C3   1.286       .  A
O2          Zr39   2.426       .  S
O2            C3   1.285       .  A
C3          C307   1.434       .  S
O4          Zr16   2.436       .  S
O4            C6   1.285       .  A
O5          Zr40   2.430       .  S
O5            C6   1.286       .  A
C6          C311   1.434       .  S
O7          Zr16   2.439       .  S
O7            C9   1.286       .  A
O8          Zr39   2.428       .  S
O8            C9   1.286       .  A
C9          C320   1.435       .  S
O10         Zr13   2.437       .  S
O10          C12   1.286       .  A
O11         Zr40   2.430       .  S
O11          C12   1.286       .  A
C12         C318   1.434       .  S
Zr13         O14   2.434       .  S
Zr13         O15   2.436       .  S
Zr13         O19   2.371       .  S
Zr13         O20   2.370       .  S
Zr13         O43   2.372       .  S
Zr13         O45   2.371       .  S
O14          H57   0.990       .  S
O15          H56   0.990       .  S
O15          H60   0.990       .  S
Zr16         O17   2.435       .  S
Zr16         O18   2.435       .  S
Zr16         O20   2.371       .  S
Zr16         O19   2.370       .  S
Zr16         O44   2.370       .  S
Zr16         O46   2.372       .  S
O17          H58   0.990       .  S
O17          H61   0.990       .  S
O18          H51   0.990       .  S
O19         Zr39   2.382       .  S
O20         Zr40   2.386       .  S
O20          H47   0.966       .  S
O21         Zr33   2.438       .  S
O21          C23   1.286       .  A
O22         Zr40   2.428       .  S
O22          C23   1.286       .  A
C23         C305   1.434       .  S
O24         Zr36   2.438       .  S
O24          C26   1.286       .  A
O25         Zr39   2.428       .  S
O25          C26   1.286       .  A
C26         C309   1.434       .  S
O27         Zr36   2.436       .  S
O27          C29   1.285       .  A
O28         Zr40   2.428       .  S
O28          C29   1.286       .  A
C29         C313   1.433       .  S
O30         Zr33   2.438       .  S
O30          C32   1.286       .  A
O31         Zr39   2.427       .  S
O31          C32   1.286       .  A
C32         C315   1.434       .  S
Zr33         O34   2.436       .  S
Zr33         O35   2.434       .  S
Zr33         O41   2.371       .  S
Zr33         O42   2.371       .  S
Zr33         O45   2.370       .  S
Zr33         O43   2.372       .  S
O34          H54   0.990       .  S
O34          H59   0.990       .  S
O35          H55   0.990       .  S
Zr36         O37   2.434       .  S
Zr36         O38   2.435       .  S
Zr36         O42   2.371       .  S
Zr36         O41   2.371       .  S
Zr36         O46   2.371       .  S
Zr36         O44   2.369       .  S
O37          H53   0.990       .  S
O38          H52   0.990       .  S
O38          H62   0.990       .  S
Zr39         O42   2.382       .  S
Zr39         O44   2.384       .  S
Zr39         O45   2.386       .  S
Zr40         O41   2.387       .  S
Zr40         O43   2.383       .  S
Zr40         O46   2.383       .  S
O41          H49   0.966       .  S
O44          H48   0.966       .  S
O45          H50   0.966       .  S
O63         Zr75   2.439       .  S
O63          C65   1.286       .  A
O64        Zr421   2.428       .  S
O64          C65   1.286       .  A
C65         C304   1.434       .  S
O66         Zr78   2.440       .  S
O66          C68   1.286       .  A
O67       Zr1062   2.428   1_455  S
O67          C68   1.286       .  A
C68         C296   1.435       .  S
O69         Zr78   2.437       .  S
O69          C71   1.286       .  A
O70       Zr1061   2.430   1_455  S
O70          C71   1.286       .  A
C71         C299   1.435       .  S
O72         Zr75   2.440       .  S
O72          C74   1.286       .  A
O73        Zr422   2.427       .  S
O73          C74   1.285       .  A
C74         C298   1.434       .  S
Zr75         O76   2.435       .  S
Zr75         O77   2.436       .  S
Zr75         O81   2.371       .  S
Zr75         O82   2.370       .  S
Zr75        O425   2.372       .  S
Zr75        O427   2.373       .  S
O76         H119   0.990       .  S
O77         H118   0.990       .  S
O77         H122   0.990       .  S
Zr78         O79   2.436       .  S
Zr78         O80   2.435       .  S
Zr78        O722   2.371   1_455  S
Zr78        O721   2.372   1_455  S
Zr78        O426   2.372       .  S
Zr78        O428   2.372       .  S
O79         H120   0.990       .  S
O79         H123   0.990       .  S
O80         H113   0.990       .  S
O81        Zr718   2.372       .  S
O81        Zr421   2.383       .  S
O82        Zr718   2.371       .  S
O82        Zr422   2.386       .  S
O82         H109   0.966       .  S
O83         Zr95   2.440       .  S
O83          C85   1.286       .  A
O84        Zr102   2.428       .  S
O84          C85   1.286       .  A
C85         C293   1.435       .  S
O86         Zr98   2.436       .  S
O86          C88   1.286       .  A
O87        Zr741   2.430   1_455  S
O87          C88   1.286       .  A
C88         C289   1.435       .  S
O89         Zr98   2.441       .  S
O89          C91   1.286       .  A
O90        Zr742   2.428   1_455  S
O90          C91   1.286       .  A
C91         C291   1.435       .  S
O92         Zr95   2.437       .  S
O92          C94   1.286       .  A
O93        Zr101   2.430       .  S
O93          C94   1.286       .  A
C94         C302   1.434       .  S
Zr95         O96   2.436       .  S
Zr95         O97   2.434       .  S
Zr95        O103   2.371       .  S
Zr95        O104   2.371       .  S
Zr95        O107   2.371       .  S
Zr95        O105   2.371       .  S
O96         H116   0.990       .  S
O96         H121   0.990       .  S
O97         H117   0.990       .  S
Zr98         O99   2.434       .  S
Zr98        O100   2.435       .  S
Zr98        O108   2.370       .  S
Zr98        O106   2.370       .  S
Zr98        O744   2.372   1_455  S
Zr98        O743   2.370   1_455  S
O99         H115   0.990       .  S
O100        H114   0.990       .  S
O100        H124   0.990       .  S
Zr101       O384   2.428   1_554  S
Zr101      O1030   2.430   1_554  S
Zr101       O727   2.430       .  S
Zr101       O104   2.383       .  S
Zr101       O107   2.387       .  S
Zr101       O401   2.383   1_554  S
Zr101       O746   2.385       .  S
Zr102      O1027   2.428   1_554  S
Zr102       O393   2.427   1_554  S
Zr102       O730   2.428       .  S
Zr102       O103   2.386       .  S
Zr102       O105   2.383       .  S
Zr102       O402   2.386   1_554  S
Zr102       O748   2.382       .  S
O103       Zr738   2.370       .  S
O103        H111   0.966       .  S
O104       Zr738   2.372       .  S
O105       Zr395   2.372   1_554  S
O106       Zr398   2.372   1_554  S
O106       Zr741   2.385   1_455  S
O106        H110   0.966       .  S
O107       Zr395   2.373   1_554  S
O107        H112   0.966       .  S
O108       Zr398   2.372   1_554  S
O108       Zr742   2.382   1_455  S
C125        C285   1.466       .  S
C125        C287   1.467       .  S
C125        C303   1.466       .  S
C125        C316   1.466       .  S
O126       Zr138   2.438       .  S
O126        C128   1.286       .  A
O127       Zr484   2.429       .  S
O127        C128   1.286       .  A
C128        C288   1.435       .  S
O129       Zr141   2.439   1_565  S
O129        C131   1.286       .  A
O130       Zr485   2.427       .  S
O130        C131   1.285       .  A
C131        C284   1.435       .  S
O132       Zr141   2.437       .  S
O132        C134   1.286       .  A
O133       Zr484   2.431       .  S
O133        C134   1.286       .  A
C134        C279   1.436       .  S
O135       Zr138   2.439   1_565  S
O135        C137   1.286       .  A
O136       Zr485   2.428       .  S
O136        C137   1.286       .  A
C137        C278   1.435       .  S
Zr138       O139   2.434       .  S
Zr138       O140   2.436       .  S
Zr138       O144   2.372       .  S
Zr138       O145   2.370   1_545  S
Zr138       O488   2.371   1_545  S
Zr138       O490   2.371       .  S
O139        H182   0.990       .  S
O140        H181   0.990       .  S
O140        H185   0.990       .  S
Zr141       O142   2.435       .  S
Zr141       O143   2.435       .  S
Zr141       O145   2.371   1_545  S
Zr141       O144   2.371       .  S
Zr141       O489   2.371       .  S
Zr141       O491   2.372   1_545  S
O142        H183   0.990   1_545  S
O142        H186   0.990       .  S
O143        H176   0.990       .  S
O144       Zr484   2.383       .  S
O145       Zr485   2.386       .  S
O145        H172   0.966       .  S
O146       Zr158   2.442   1_565  S
O146        C148   1.287       .  A
O147       Zr165   2.426       .  S
O147        C148   1.285       .  A
C148        C282   1.435       .  S
O149       Zr161   2.436       .  S
O149        C151   1.286       .  A
O150       Zr164   2.430       .  S
O150        C151   1.286       .  A
C151        C274   1.434       .  S
O152       Zr161   2.440   1_565  S
O152        C154   1.286       .  A
O153       Zr165   2.428       .  S
O153        C154   1.286       .  A
C154        C276   1.435       .  S
O155       Zr158   2.438       .  S
O155        C157   1.286       .  A
O156       Zr164   2.429       .  S
O156        C157   1.286       .  A
C157        C272   1.435       .  S
Zr158       O159   2.436       .  S
Zr158       O160   2.434       .  S
Zr158       O166   2.372   1_545  S
Zr158       O167   2.372       .  S
Zr158       O170   2.371       .  S
Zr158       O168   2.371   1_545  S
O159        H179   0.990   1_545  S
O159        H184   0.990       .  S
O160        H180   0.990   1_545  S
Zr161       O162   2.434       .  S
Zr161       O163   2.435       .  S
Zr161       O167   2.372       .  S
Zr161       O166   2.369   1_545  S
Zr161       O171   2.371   1_545  S
Zr161       O169   2.371       .  S
O162        H178   0.990       .  S
O163        H177   0.990   1_545  S
O163        H187   0.990       .  S
Zr164       O447   2.429   1_554  S
Zr164       O453   2.431   1_554  S
Zr164       O167   2.384       .  S
Zr164       O169   2.386       .  S
Zr164       O170   2.388       .  S
Zr164       O464   2.383   1_554  S
Zr165       O450   2.427   1_554  S
Zr165       O456   2.428   1_554  S
Zr165       O166   2.386       .  S
Zr165       O168   2.383       .  S
Zr165       O171   2.383       .  S
Zr165       O465   2.386   1_554  S
O166        H174   0.966       .  S
O168       Zr458   2.371   1_564  S
O169       Zr461   2.371   1_554  S
O169        H173   0.966       .  S
O170       Zr458   2.371   1_554  S
O170        H175   0.966       .  S
O171       Zr461   2.372   1_564  S
C188        C269   1.467       .  S
C188        C283   1.467       .  S
C188        C295   1.467       .  S
C188        C317   1.466       .  S
O189       Zr201   2.439       .  S
O189        C191   1.286       .  A
O190       Zr867   2.426       .  S
O190        C191   1.285       .  A
C191        C268   1.434       .  S
O192       Zr204   2.438   1_565  S
O192        C194   1.286       .  A
O193       Zr228   2.429       .  S
O193        C194   1.286       .  A
C194        C261   1.434       .  S
O195       Zr204   2.438       .  S
O195        C197   1.286       .  A
O196       Zr867   2.427       .  S
O196        C197   1.286       .  A
C197        C286   1.434       .  S
O198       Zr201   2.436   1_565  S
O198        C200   1.286       .  A
O199       Zr228   2.430       .  S
O199        C200   1.286       .  A
C200        C265   1.434       .  S
Zr201       O202   2.434       .  S
Zr201       O203   2.436       .  S
Zr201       O207   2.370       .  S
Zr201       O208   2.371   1_545  S
Zr201       O231   2.371   1_545  S
Zr201       O873   2.371       .  S
O202        H245   0.990       .  S
O203        H244   0.990       .  S
O203        H248   0.990       .  S
Zr204       O205   2.436       .  S
Zr204       O206   2.435       .  S
Zr204       O208   2.371   1_545  S
Zr204       O207   2.371       .  S
Zr204       O234   2.373   1_545  S
Zr204       O872   2.371       .  S
O205        H246   0.990   1_545  S
O205        H249   0.990       .  S
O206        H239   0.990       .  S
O207       Zr867   2.382       .  S
O208       Zr228   2.387       .  S
O208        H235   0.966       .  S
O209       Zr221   2.438   1_565  S
O209        C211   1.286       .  A
O210       Zr868   2.429   1_455  S
O210        C211   1.286       .  A
C211        C263   1.434       .  S
O212       Zr224   2.440       .  S
O212        C214   1.286       .  A
O213       Zr227   2.426   1_455  S
O213        C214   1.285       .  A
C214        C258   1.435       .  S
O215       Zr224   2.438   1_565  S
O215        C217   1.286       .  A
O216       Zr868   2.430   1_455  S
O216        C217   1.286       .  A
C217        C270   1.435       .  S
O218       Zr221   2.440       .  S
O218        C220   1.286       .  A
O219       Zr227   2.426   1_455  S
O219        C220   1.285       .  A
C220        C259   1.435       .  S
Zr221       O222   2.436       .  S
Zr221       O223   2.434       .  S
Zr221       O229   2.372   1_545  S
Zr221       O230   2.371       .  S
Zr221       O233   2.370   1_455  S
Zr221       O871   2.371   1_445  S
O222        H242   0.990   1_545  S
O222        H247   0.990   1_545  S
O223        H243   0.990   1_545  S
Zr224       O225   2.434       .  S
Zr224       O226   2.435       .  S
Zr224       O230   2.371       .  S
Zr224       O229   2.371   1_545  S
Zr224       O232   2.369   1_455  S
Zr224       O874   2.371   1_445  S
O225        H241   0.990       .  S
O226        H240   0.990   1_545  S
O226        H250   0.990       .  S
Zr227       O830   2.426       .  S
Zr227       O836   2.427       .  S
Zr227       O230   2.382   1_655  S
Zr227       O232   2.385       .  S
Zr227       O233   2.385       .  S
Zr227       O847   2.382       .  S
Zr228       O850   2.429       .  S
Zr228       O856   2.430       .  S
Zr228       O231   2.383       .  S
Zr228       O234   2.384       .  S
Zr228       O869   2.387       .  S
O229       Zr868   2.387   1_455  S
O229        H237   0.966       .  S
O231       Zr861   2.371   1_565  S
O232       Zr844   2.371       .  S
O232        H236   0.966       .  S
O233       Zr841   2.371       .  S
O233        H238   0.966       .  S
O234       Zr864   2.371   1_565  S
C251        C266   1.466       .  S
C251        C281   1.467       .  S
C251        C294   1.467       .  S
C251        C314   1.465       .  S
C252        C260   1.466       .  S
C252        C273   1.466       .  S
C252        C290   1.467       .  S
C252        C319   1.467       .  S
C253        C267   1.466       .  S
C253        C271   1.466       .  S
C253        C301   1.466       .  S
C253        C310   1.466       .  S
C254        C264   1.466       .  S
C254        C275   1.466       .  S
C254        C292   1.467       .  S
C254        C312   1.466       .  S
C255        C257   1.467       .  S
C255        C280   1.467       .  S
C255        C300   1.467       .  S
C255        C308   1.466       .  S
C256        C262   1.466       .  S
C256        C277   1.466       .  S
C256        C297   1.466       .  S
C256        C306   1.466       .  S
C257        C258   1.207       .  T
C259        C260   1.207       .  T
C261        C262   1.207       .  T
C263        C264   1.206       .  T
C265        C266   1.206       .  T
C267        C268   1.206       .  T
C269        C270   1.207       .  T
C271        C272   1.207       .  T
C273        C274   1.206       .  T
C275        C276   1.207       .  T
C277        C278   1.207       .  T
C279        C280   1.207       .  T
C281        C282   1.207       .  T
C283        C284   1.207       .  T
C285        C286   1.206       .  T
C287        C288   1.207       .  T
C289        C290   1.207       .  T
C291        C292   1.207       .  T
C293        C294   1.207       .  T
C295        C296   1.207       .  T
C297        C298   1.206       .  T
C299        C300   1.207       .  T
C301        C302   1.206       .  T
C303        C304   1.206       .  T
C305        C306   1.206       .  T
C307        C308   1.206       .  T
C309        C310   1.206       .  T
C311        C312   1.206       .  T
C313        C314   1.206       .  T
C315        C316   1.206       .  T
C317        C318   1.207       .  T
C319        C320   1.207       .  T
O321       Zr333   2.440       .  S
O321        C323   1.286       .  A
O322       Zr359   2.426       .  S
O322        C323   1.285       .  A
C323        C627   1.434       .  S
O324       Zr336   2.436       .  S
O324        C326   1.285       .  A
O325       Zr360   2.430       .  S
O325        C326   1.286       .  A
C326        C631   1.434       .  S
O327       Zr336   2.439       .  S
O327        C329   1.286       .  A
O328       Zr359   2.428       .  S
O328        C329   1.286       .  A
C329        C640   1.435       .  S
O330       Zr333   2.437       .  S
O330        C332   1.286       .  A
O331       Zr360   2.430       .  S
O331        C332   1.286       .  A
C332        C638   1.434       .  S
Zr333       O334   2.434       .  S
Zr333       O335   2.436       .  S
Zr333       O339   2.371       .  S
Zr333       O340   2.370       .  S
Zr333       O363   2.372       .  S
Zr333       O365   2.371       .  S
O334        H377   0.990       .  S
O335        H376   0.990       .  S
O335        H380   0.990       .  S
Zr336       O337   2.435       .  S
Zr336       O338   2.435       .  S
Zr336       O340   2.371       .  S
Zr336       O339   2.370       .  S
Zr336       O364   2.370       .  S
Zr336       O366   2.372       .  S
O337        H378   0.990       .  S
O337        H381   0.990       .  S
O338        H371   0.990       .  S
O339       Zr359   2.382       .  S
O340       Zr360   2.386       .  S
O340        H367   0.966       .  S
O341       Zr353   2.438       .  S
O341        C343   1.286       .  A
O342       Zr360   2.428       .  S
O342        C343   1.286       .  A
C343        C625   1.434       .  S
O344       Zr356   2.438       .  S
O344        C346   1.286       .  A
O345       Zr359   2.428       .  S
O345        C346   1.286       .  A
C346        C629   1.434       .  S
O347       Zr356   2.436       .  S
O347        C349   1.285       .  A
O348       Zr360   2.428       .  S
O348        C349   1.286       .  A
C349        C633   1.433       .  S
O350       Zr353   2.438       .  S
O350        C352   1.286       .  A
O351       Zr359   2.427       .  S
O351        C352   1.286       .  A
C352        C635   1.434       .  S
Zr353       O354   2.436       .  S
Zr353       O355   2.434       .  S
Zr353       O361   2.371       .  S
Zr353       O362   2.371       .  S
Zr353       O365   2.370       .  S
Zr353       O363   2.372       .  S
O354        H374   0.990       .  S
O354        H379   0.990       .  S
O355        H375   0.990       .  S
Zr356       O357   2.434       .  S
Zr356       O358   2.435       .  S
Zr356       O362   2.371       .  S
Zr356       O361   2.371       .  S
Zr356       O366   2.371       .  S
Zr356       O364   2.369       .  S
O357        H373   0.990       .  S
O358        H372   0.990       .  S
O358        H382   0.990       .  S
Zr359       O362   2.382       .  S
Zr359       O364   2.384       .  S
Zr359       O365   2.386       .  S
Zr360       O361   2.387       .  S
Zr360       O363   2.383       .  S
Zr360       O366   2.383       .  S
O361        H369   0.966       .  S
O364        H368   0.966       .  S
O365        H370   0.966       .  S
O383       Zr395   2.439       .  S
O383        C385   1.286       .  A
O384        C385   1.286       .  A
C385        C624   1.434       .  S
O386       Zr398   2.440       .  S
O386        C388   1.286       .  A
O387       Zr742   2.428   1_456  S
O387        C388   1.286       .  A
C388        C616   1.435       .  S
O389       Zr398   2.437       .  S
O389        C391   1.286       .  A
O390       Zr741   2.430   1_456  S
O390        C391   1.286       .  A
C391        C619   1.435       .  S
O392       Zr395   2.440       .  S
O392        C394   1.286       .  A
O393        C394   1.285       .  A
C394        C618   1.434       .  S
Zr395       O396   2.435       .  S
Zr395       O397   2.436       .  S
Zr395       O401   2.371       .  S
Zr395       O402   2.370       .  S
O396        H439   0.990       .  S
O397        H438   0.990       .  S
O397        H442   0.990       .  S
Zr398       O399   2.436       .  S
Zr398       O400   2.435       .  S
Zr398      O1042   2.371   1_455  S
Zr398      O1041   2.372   1_455  S
O399        H440   0.990       .  S
O399        H443   0.990       .  S
O400        H433   0.990       .  S
O401      Zr1038   2.372       .  S
O402      Zr1038   2.371       .  S
O402        H429   0.966       .  S
O403       Zr415   2.440       .  S
O403        C405   1.286       .  A
O404       Zr422   2.428       .  S
O404        C405   1.286       .  A
C405        C613   1.435       .  S
O406       Zr418   2.436       .  S
O406        C408   1.286       .  A
O407      Zr1061   2.430   1_455  S
O407        C408   1.286       .  A
C408        C609   1.435       .  S
O409       Zr418   2.441       .  S
O409        C411   1.286       .  A
O410      Zr1062   2.428   1_455  S
O410        C411   1.286       .  A
C411        C611   1.435       .  S
O412       Zr415   2.437       .  S
O412        C414   1.286       .  A
O413       Zr421   2.430       .  S
O413        C414   1.286       .  A
C414        C622   1.434       .  S
Zr415       O416   2.436       .  S
Zr415       O417   2.434       .  S
Zr415       O423   2.371       .  S
Zr415       O424   2.371       .  S
Zr415       O427   2.371       .  S
Zr415       O425   2.371       .  S
O416        H436   0.990       .  S
O416        H441   0.990       .  S
O417        H437   0.990       .  S
Zr418       O419   2.434       .  S
Zr418       O420   2.435       .  S
Zr418      O1064   2.372   1_455  S
Zr418      O1063   2.370   1_455  S
Zr418       O428   2.370       .  S
Zr418       O426   2.370       .  S
O419        H435   0.990       .  S
O420        H434   0.990       .  S
O420        H444   0.990       .  S
Zr421       O710   2.430       .  S
Zr421      O1047   2.430       .  S
Zr421       O424   2.383       .  S
Zr421      O1066   2.385       .  S
Zr421       O427   2.387       .  S
Zr422       O707   2.428       .  S
Zr422      O1050   2.428       .  S
Zr422       O423   2.386       .  S
Zr422       O425   2.383       .  S
Zr422      O1068   2.382       .  S
O423      Zr1058   2.370       .  S
O423        H431   0.966       .  S
O424      Zr1058   2.372       .  S
O426      Zr1061   2.385   1_455  S
O426        H430   0.966       .  S
O427        H432   0.966       .  S
O428      Zr1062   2.382   1_455  S
C445        C605   1.466       .  S
C445        C607   1.467       .  S
C445        C623   1.466       .  S
C445        C636   1.466       .  S
O446       Zr458   2.438       .  S
O446        C448   1.286       .  A
O447        C448   1.286       .  A
C448        C608   1.435       .  S
O449       Zr461   2.439   1_565  S
O449        C451   1.286       .  A
O450        C451   1.285       .  A
C451        C604   1.435       .  S
O452       Zr461   2.437       .  S
O452        C454   1.286       .  A
O453        C454   1.286       .  A
C454        C599   1.436       .  S
O455       Zr458   2.439   1_565  S
O455        C457   1.286       .  A
O456        C457   1.286       .  A
C457        C598   1.435       .  S
Zr458       O459   2.434       .  S
Zr458       O460   2.436       .  S
Zr458       O464   2.372       .  S
Zr458       O465   2.370   1_545  S
O459        H502   0.990       .  S
O460        H501   0.990       .  S
O460        H505   0.990       .  S
Zr461       O462   2.435       .  S
Zr461       O463   2.435       .  S
Zr461       O465   2.371   1_545  S
Zr461       O464   2.371       .  S
O462        H503   0.990   1_545  S
O462        H506   0.990       .  S
O463        H496   0.990       .  S
O465        H492   0.966       .  S
O466       Zr478   2.442   1_565  S
O466        C468   1.287       .  A
O467       Zr485   2.426       .  S
O467        C468   1.285       .  A
C468        C602   1.435       .  S
O469       Zr481   2.436       .  S
O469        C471   1.286       .  A
O470       Zr484   2.430       .  S
O470        C471   1.286       .  A
C471        C594   1.434       .  S
O472       Zr481   2.440   1_565  S
O472        C474   1.286       .  A
O473       Zr485   2.428       .  S
O473        C474   1.286       .  A
C474        C596   1.435       .  S
O475       Zr478   2.438       .  S
O475        C477   1.286       .  A
O476       Zr484   2.429       .  S
O476        C477   1.286       .  A
C477        C592   1.435       .  S
Zr478       O479   2.436       .  S
Zr478       O480   2.434       .  S
Zr478       O486   2.372   1_545  S
Zr478       O487   2.372       .  S
Zr478       O490   2.371       .  S
Zr478       O488   2.371   1_545  S
O479        H499   0.990   1_545  S
O479        H504   0.990       .  S
O480        H500   0.990   1_545  S
Zr481       O482   2.434       .  S
Zr481       O483   2.435       .  S
Zr481       O487   2.372       .  S
Zr481       O486   2.369   1_545  S
Zr481       O491   2.371   1_545  S
Zr481       O489   2.371       .  S
O482        H498   0.990       .  S
O483        H497   0.990   1_545  S
O483        H507   0.990       .  S
Zr484       O487   2.384       .  S
Zr484       O489   2.386       .  S
Zr484       O490   2.388       .  S
Zr485       O486   2.386       .  S
Zr485       O488   2.383       .  S
Zr485       O491   2.383       .  S
O486        H494   0.966       .  S
O489        H493   0.966       .  S
O490        H495   0.966       .  S
C508        C589   1.467       .  S
C508        C603   1.467       .  S
C508        C615   1.467       .  S
C508        C637   1.466       .  S
O509       Zr521   2.439       .  S
O509        C511   1.286       .  A
O510      Zr1187   2.426       .  S
O510        C511   1.285       .  A
C511        C588   1.434       .  S
O512       Zr524   2.438   1_565  S
O512        C514   1.286       .  A
O513       Zr548   2.429       .  S
O513        C514   1.286       .  A
C514        C581   1.434       .  S
O515       Zr524   2.438       .  S
O515        C517   1.286       .  A
O516      Zr1187   2.427       .  S
O516        C517   1.286       .  A
C517        C606   1.434       .  S
O518       Zr521   2.436   1_565  S
O518        C520   1.286       .  A
O519       Zr548   2.430       .  S
O519        C520   1.286       .  A
C520        C585   1.434       .  S
Zr521       O522   2.434       .  S
Zr521       O523   2.436       .  S
Zr521       O527   2.370       .  S
Zr521       O528   2.371   1_545  S
Zr521       O551   2.371   1_545  S
Zr521      O1193   2.371       .  S
O522        H565   0.990       .  S
O523        H564   0.990       .  S
O523        H568   0.990       .  S
Zr524       O525   2.436       .  S
Zr524       O526   2.435       .  S
Zr524       O528   2.371   1_545  S
Zr524       O527   2.371       .  S
Zr524      O1192   2.371       .  S
Zr524       O554   2.373   1_545  S
O525        H566   0.990   1_545  S
O525        H569   0.990       .  S
O526        H559   0.990       .  S
O527      Zr1187   2.382       .  S
O528       Zr548   2.387       .  S
O528        H555   0.966       .  S
O529       Zr541   2.438   1_565  S
O529        C531   1.286       .  A
O530      Zr1188   2.429   1_455  S
O530        C531   1.286       .  A
C531        C583   1.434       .  S
O532       Zr544   2.440       .  S
O532        C534   1.286       .  A
O533       Zr547   2.426   1_455  S
O533        C534   1.285       .  A
C534        C578   1.435       .  S
O535       Zr544   2.438   1_565  S
O535        C537   1.286       .  A
O536      Zr1188   2.430   1_455  S
O536        C537   1.286       .  A
C537        C590   1.435       .  S
O538       Zr541   2.440       .  S
O538        C540   1.286       .  A
O539       Zr547   2.426   1_455  S
O539        C540   1.285       .  A
C540        C579   1.435       .  S
Zr541       O542   2.436       .  S
Zr541       O543   2.434       .  S
Zr541       O549   2.372   1_545  S
Zr541       O550   2.371       .  S
Zr541       O553   2.370   1_455  S
Zr541      O1191   2.371   1_445  S
O542        H562   0.990   1_545  S
O542        H567   0.990   1_545  S
O543        H563   0.990   1_545  S
Zr544       O545   2.434       .  S
Zr544       O546   2.435       .  S
Zr544       O550   2.371       .  S
Zr544       O549   2.371   1_545  S
Zr544      O1194   2.371   1_445  S
Zr544       O552   2.369   1_455  S
O545        H561   0.990       .  S
O546        H560   0.990   1_545  S
O546        H570   0.990       .  S
Zr547      O1150   2.426       .  S
Zr547      O1156   2.427       .  S
Zr547      O1167   2.382       .  S
Zr547       O550   2.382   1_655  S
Zr547       O552   2.385       .  S
Zr547       O553   2.385       .  S
Zr548      O1170   2.429       .  S
Zr548      O1176   2.430       .  S
Zr548      O1189   2.387       .  S
Zr548       O551   2.383       .  S
Zr548       O554   2.384       .  S
O549      Zr1188   2.387   1_455  S
O549        H557   0.966       .  S
O551      Zr1181   2.371   1_565  S
O552      Zr1164   2.371       .  S
O552        H556   0.966       .  S
O553      Zr1161   2.371       .  S
O553        H558   0.966       .  S
O554      Zr1184   2.371   1_565  S
C571        C586   1.466       .  S
C571        C601   1.467       .  S
C571        C614   1.467       .  S
C571        C634   1.465       .  S
C572        C580   1.466       .  S
C572        C593   1.466       .  S
C572        C610   1.467       .  S
C572        C639   1.467       .  S
C573        C587   1.466       .  S
C573        C591   1.466       .  S
C573        C621   1.466       .  S
C573        C630   1.466       .  S
C574        C584   1.466       .  S
C574        C595   1.466       .  S
C574        C612   1.467       .  S
C574        C632   1.466       .  S
C575        C577   1.467       .  S
C575        C600   1.467       .  S
C575        C620   1.467       .  S
C575        C628   1.466       .  S
C576        C582   1.466       .  S
C576        C597   1.466       .  S
C576        C617   1.466       .  S
C576        C626   1.466       .  S
C577        C578   1.207       .  T
C579        C580   1.207       .  T
C581        C582   1.207       .  T
C583        C584   1.206       .  T
C585        C586   1.206       .  T
C587        C588   1.206       .  T
C589        C590   1.207       .  T
C591        C592   1.207       .  T
C593        C594   1.206       .  T
C595        C596   1.207       .  T
C597        C598   1.207       .  T
C599        C600   1.207       .  T
C601        C602   1.207       .  T
C603        C604   1.207       .  T
C605        C606   1.206       .  T
C607        C608   1.207       .  T
C609        C610   1.207       .  T
C611        C612   1.207       .  T
C613        C614   1.207       .  T
C615        C616   1.207       .  T
C617        C618   1.206       .  T
C619        C620   1.207       .  T
C621        C622   1.206       .  T
C623        C624   1.206       .  T
C625        C626   1.206       .  T
C627        C628   1.206       .  T
C629        C630   1.206       .  T
C631        C632   1.207       .  T
C633        C634   1.206       .  T
C635        C636   1.206       .  T
C637        C638   1.207       .  T
C639        C640   1.207       .  T
O641       Zr653   2.440       .  S
O641        C643   1.286       .  A
O642       Zr679   2.426       .  S
O642        C643   1.285       .  A
C643        C947   1.434       .  S
O644       Zr656   2.436       .  S
O644        C646   1.285       .  A
O645       Zr680   2.430       .  S
O645        C646   1.286       .  A
C646        C951   1.434       .  S
O647       Zr656   2.439       .  S
O647        C649   1.286       .  A
O648       Zr679   2.428       .  S
O648        C649   1.286       .  A
C649        C960   1.435       .  S
O650       Zr653   2.437       .  S
O650        C652   1.286       .  A
O651       Zr680   2.430       .  S
O651        C652   1.286       .  A
C652        C958   1.434       .  S
Zr653       O654   2.434       .  S
Zr653       O655   2.436       .  S
Zr653       O659   2.371       .  S
Zr653       O660   2.370       .  S
Zr653       O683   2.372       .  S
Zr653       O685   2.371       .  S
O654        H697   0.990       .  S
O655        H696   0.990       .  S
O655        H700   0.990       .  S
Zr656       O657   2.435       .  S
Zr656       O658   2.435       .  S
Zr656       O660   2.371       .  S
Zr656       O659   2.370       .  S
Zr656       O684   2.370       .  S
Zr656       O686   2.372       .  S
O657        H698   0.990       .  S
O657        H701   0.990       .  S
O658        H691   0.990       .  S
O659       Zr679   2.382       .  S
O660       Zr680   2.386       .  S
O660        H687   0.966       .  S
O661       Zr673   2.438       .  S
O661        C663   1.286       .  A
O662       Zr680   2.428       .  S
O662        C663   1.286       .  A
C663        C945   1.434       .  S
O664       Zr676   2.438       .  S
O664        C666   1.286       .  A
O665       Zr679   2.428       .  S
O665        C666   1.286       .  A
C666        C949   1.434       .  S
O667       Zr676   2.436       .  S
O667        C669   1.285       .  A
O668       Zr680   2.428       .  S
O668        C669   1.286       .  A
C669        C953   1.433       .  S
O670       Zr673   2.438       .  S
O670        C672   1.286       .  A
O671       Zr679   2.427       .  S
O671        C672   1.286       .  A
C672        C955   1.434       .  S
Zr673       O674   2.436       .  S
Zr673       O675   2.434       .  S
Zr673       O681   2.371       .  S
Zr673       O682   2.371       .  S
Zr673       O685   2.370       .  S
Zr673       O683   2.372       .  S
O674        H694   0.990       .  S
O674        H699   0.990       .  S
O675        H695   0.990       .  S
Zr676       O677   2.434       .  S
Zr676       O678   2.435       .  S
Zr676       O682   2.371       .  S
Zr676       O681   2.371       .  S
Zr676       O686   2.371       .  S
Zr676       O684   2.369       .  S
O677        H693   0.990       .  S
O678        H692   0.990       .  S
O678        H702   0.990       .  S
Zr679       O682   2.382       .  S
Zr679       O684   2.384       .  S
Zr679       O685   2.386       .  S
Zr680       O681   2.387       .  S
Zr680       O683   2.383       .  S
Zr680       O686   2.383       .  S
O681        H689   0.966       .  S
O684        H688   0.966       .  S
O685        H690   0.966       .  S
O703       Zr715   2.439       .  S
O703        C705   1.286       .  A
O704      Zr1061   2.428       .  S
O704        C705   1.286       .  A
C705        C944   1.434       .  S
O706       Zr718   2.440       .  S
O706        C708   1.286       .  A
O707        C708   1.286       .  A
C708        C936   1.435       .  S
O709       Zr718   2.437       .  S
O709        C711   1.286       .  A
O710        C711   1.286       .  A
C711        C939   1.435       .  S
O712       Zr715   2.440       .  S
O712        C714   1.286       .  A
O713      Zr1062   2.427       .  S
O713        C714   1.285       .  A
C714        C938   1.434       .  S
Zr715       O716   2.435       .  S
Zr715       O717   2.436       .  S
Zr715       O721   2.371       .  S
Zr715       O722   2.370       .  S
Zr715      O1065   2.372       .  S
Zr715      O1067   2.373       .  S
O716        H759   0.990       .  S
O717        H758   0.990       .  S
O717        H762   0.990       .  S
Zr718       O719   2.436       .  S
Zr718       O720   2.435       .  S
Zr718      O1066   2.372       .  S
Zr718      O1068   2.372       .  S
O719        H760   0.990       .  S
O719        H763   0.990       .  S
O720        H753   0.990       .  S
O721      Zr1061   2.383       .  S
O722      Zr1062   2.386       .  S
O722        H749   0.966       .  S
O723       Zr735   2.440       .  S
O723        C725   1.286       .  A
O724       Zr742   2.428       .  S
O724        C725   1.286       .  A
C725        C933   1.435       .  S
O726       Zr738   2.436       .  S
O726        C728   1.286       .  A
O727        C728   1.286       .  A
C728        C929   1.435       .  S
O729       Zr738   2.441       .  S
O729        C731   1.286       .  A
O730        C731   1.286       .  A
C731        C931   1.435       .  S
O732       Zr735   2.437       .  S
O732        C734   1.286       .  A
O733       Zr741   2.430       .  S
O733        C734   1.286       .  A
C734        C942   1.434       .  S
Zr735       O736   2.436       .  S
Zr735       O737   2.434       .  S
Zr735       O743   2.371       .  S
Zr735       O744   2.371       .  S
Zr735       O747   2.371       .  S
Zr735       O745   2.371       .  S
O736        H756   0.990       .  S
O736        H761   0.990       .  S
O737        H757   0.990       .  S
Zr738       O739   2.434       .  S
Zr738       O740   2.435       .  S
Zr738       O748   2.370       .  S
Zr738       O746   2.370       .  S
O739        H755   0.990       .  S
O740        H754   0.990       .  S
O740        H764   0.990       .  S
Zr741      O1024   2.428   1_554  S
Zr741      O1041   2.383   1_554  S
Zr741       O744   2.383       .  S
Zr741       O747   2.387       .  S
Zr742      O1033   2.427   1_554  S
Zr742      O1042   2.386   1_554  S
Zr742       O743   2.386       .  S
Zr742       O745   2.383       .  S
O743        H751   0.966       .  S
O745      Zr1035   2.372   1_554  S
O746      Zr1038   2.372   1_554  S
O746        H750   0.966       .  S
O747      Zr1035   2.373   1_554  S
O747        H752   0.966       .  S
O748      Zr1038   2.372   1_554  S
C765        C925   1.466       .  S
C765        C927   1.467       .  S
C765        C943   1.466       .  S
C765        C956   1.466       .  S
O766       Zr778   2.438       .  S
O766        C768   1.286       .  A
O767      Zr1124   2.429       .  S
O767        C768   1.286       .  A
C768        C928   1.435       .  S
O769       Zr781   2.439   1_565  S
O769        C771   1.286       .  A
O770      Zr1125   2.427       .  S
O770        C771   1.285       .  A
C771        C924   1.435       .  S
O772       Zr781   2.437       .  S
O772        C774   1.286       .  A
O773      Zr1124   2.431       .  S
O773        C774   1.286       .  A
C774        C919   1.436       .  S
O775       Zr778   2.439   1_565  S
O775        C777   1.286       .  A
O776      Zr1125   2.428       .  S
O776        C777   1.286       .  A
C777        C918   1.435       .  S
Zr778       O779   2.434       .  S
Zr778       O780   2.436       .  S
Zr778       O784   2.372       .  S
Zr778       O785   2.370   1_545  S
Zr778      O1128   2.371   1_545  S
Zr778      O1130   2.371       .  S
O779        H822   0.990       .  S
O780        H821   0.990       .  S
O780        H825   0.990       .  S
Zr781       O782   2.435       .  S
Zr781       O783   2.435       .  S
Zr781       O785   2.371   1_545  S
Zr781       O784   2.371       .  S
Zr781      O1129   2.371       .  S
Zr781      O1131   2.372   1_545  S
O782        H823   0.990   1_545  S
O782        H826   0.990       .  S
O783        H816   0.990       .  S
O784      Zr1124   2.383       .  S
O785      Zr1125   2.386       .  S
O785        H812   0.966       .  S
O786       Zr798   2.442   1_565  S
O786        C788   1.287       .  A
O787       Zr805   2.426       .  S
O787        C788   1.285       .  A
C788        C922   1.435       .  S
O789       Zr801   2.436       .  S
O789        C791   1.286       .  A
O790       Zr804   2.430       .  S
O790        C791   1.286       .  A
C791        C914   1.434       .  S
O792       Zr801   2.440   1_565  S
O792        C794   1.286       .  A
O793       Zr805   2.428       .  S
O793        C794   1.286       .  A
C794        C916   1.435       .  S
O795       Zr798   2.438       .  S
O795        C797   1.286       .  A
O796       Zr804   2.429       .  S
O796        C797   1.286       .  A
C797        C912   1.435       .  S
Zr798       O799   2.436       .  S
Zr798       O800   2.434       .  S
Zr798       O806   2.372   1_545  S
Zr798       O807   2.372       .  S
Zr798       O810   2.371       .  S
Zr798       O808   2.371   1_545  S
O799        H819   0.990   1_545  S
O799        H824   0.990       .  S
O800        H820   0.990   1_545  S
Zr801       O802   2.434       .  S
Zr801       O803   2.435       .  S
Zr801       O807   2.372       .  S
Zr801       O806   2.369   1_545  S
Zr801       O811   2.371   1_545  S
Zr801       O809   2.371       .  S
O802        H818   0.990       .  S
O803        H817   0.990   1_545  S
O803        H827   0.990       .  S
Zr804      O1087   2.429   1_554  S
Zr804      O1093   2.431   1_554  S
Zr804      O1104   2.383   1_554  S
Zr804       O807   2.384       .  S
Zr804       O809   2.386       .  S
Zr804       O810   2.388       .  S
Zr805      O1090   2.427   1_554  S
Zr805      O1096   2.428   1_554  S
Zr805      O1105   2.386   1_554  S
Zr805       O806   2.386       .  S
Zr805       O808   2.383       .  S
Zr805       O811   2.383       .  S
O806        H814   0.966       .  S
O808      Zr1098   2.371   1_564  S
O809      Zr1101   2.371   1_554  S
O809        H813   0.966       .  S
O810      Zr1098   2.371   1_554  S
O810        H815   0.966       .  S
O811      Zr1101   2.372   1_564  S
C828        C909   1.467       .  S
C828        C923   1.467       .  S
C828        C935   1.467       .  S
C828        C957   1.466       .  S
O829       Zr841   2.439       .  S
O829        C831   1.286       .  A
O830        C831   1.285       .  A
C831        C908   1.434       .  S
O832       Zr844   2.438   1_565  S
O832        C834   1.286       .  A
O833       Zr868   2.429       .  S
O833        C834   1.286       .  A
C834        C901   1.434       .  S
O835       Zr844   2.438       .  S
O835        C837   1.286       .  A
O836        C837   1.286       .  A
C837        C926   1.434       .  S
O838       Zr841   2.436   1_565  S
O838        C840   1.286       .  A
O839       Zr868   2.430       .  S
O839        C840   1.286       .  A
C840        C905   1.434       .  S
Zr841       O842   2.434       .  S
Zr841       O843   2.436       .  S
Zr841       O847   2.370       .  S
Zr841       O848   2.371   1_545  S
Zr841       O871   2.371   1_545  S
O842        H885   0.990       .  S
O843        H884   0.990       .  S
O843        H888   0.990       .  S
Zr844       O845   2.436       .  S
Zr844       O846   2.435       .  S
Zr844       O848   2.371   1_545  S
Zr844       O847   2.371       .  S
Zr844       O874   2.373   1_545  S
O845        H886   0.990   1_545  S
O845        H889   0.990       .  S
O846        H879   0.990       .  S
O848       Zr868   2.387       .  S
O848        H875   0.966       .  S
O849       Zr861   2.438   1_565  S
O849        C851   1.286       .  A
O850        C851   1.286       .  A
C851        C903   1.434       .  S
O852       Zr864   2.440       .  S
O852        C854   1.286       .  A
O853       Zr867   2.426       .  S
O853        C854   1.285       .  A
C854        C898   1.435       .  S
O855       Zr864   2.438   1_565  S
O855        C857   1.286       .  A
O856        C857   1.286       .  A
C857        C910   1.435       .  S
O858       Zr861   2.440       .  S
O858        C860   1.286       .  A
O859       Zr867   2.426       .  S
O859        C860   1.285       .  A
C860        C899   1.435       .  S
Zr861       O862   2.436       .  S
Zr861       O863   2.434       .  S
Zr861       O869   2.372   1_545  S
Zr861       O870   2.371       .  S
Zr861       O873   2.370       .  S
O862        H882   0.990   1_545  S
O862        H887   0.990   1_545  S
O863        H883   0.990   1_545  S
Zr864       O865   2.434       .  S
Zr864       O866   2.435       .  S
Zr864       O870   2.371       .  S
Zr864       O869   2.371   1_545  S
Zr864       O872   2.369       .  S
O865        H881   0.990       .  S
O866        H880   0.990   1_545  S
O866        H890   0.990       .  S
Zr867       O870   2.382       .  S
Zr867       O872   2.385       .  S
Zr867       O873   2.385       .  S
Zr868       O871   2.383       .  S
Zr868       O874   2.384       .  S
O869        H877   0.966       .  S
O872        H876   0.966       .  S
O873        H878   0.966       .  S
C891        C906   1.466       .  S
C891        C921   1.467       .  S
C891        C934   1.467       .  S
C891        C954   1.465       .  S
C892        C900   1.466       .  S
C892        C913   1.466       .  S
C892        C930   1.467       .  S
C892        C959   1.467       .  S
C893        C907   1.466       .  S
C893        C911   1.466       .  S
C893        C941   1.466       .  S
C893        C950   1.466       .  S
C894        C904   1.466       .  S
C894        C915   1.466       .  S
C894        C932   1.467       .  S
C894        C952   1.466       .  S
C895        C897   1.467       .  S
C895        C920   1.467       .  S
C895        C940   1.467       .  S
C895        C948   1.466       .  S
C896        C902   1.466       .  S
C896        C917   1.466       .  S
C896        C937   1.466       .  S
C896        C946   1.466       .  S
C897        C898   1.207       .  T
C899        C900   1.207       .  T
C901        C902   1.207       .  T
C903        C904   1.206       .  T
C905        C906   1.206       .  T
C907        C908   1.206       .  T
C909        C910   1.207       .  T
C911        C912   1.207       .  T
C913        C914   1.206       .  T
C915        C916   1.207       .  T
C917        C918   1.207       .  T
C919        C920   1.207       .  T
C921        C922   1.207       .  T
C923        C924   1.207       .  T
C925        C926   1.206       .  T
C927        C928   1.207       .  T
C929        C930   1.207       .  T
C931        C932   1.207       .  T
C933        C934   1.207       .  T
C935        C936   1.207       .  T
C937        C938   1.206       .  T
C939        C940   1.207       .  T
C941        C942   1.206       .  T
C943        C944   1.206       .  T
C945        C946   1.206       .  T
C947        C948   1.206       .  T
C949        C950   1.206       .  T
C951        C952   1.207       .  T
C953        C954   1.206       .  T
C955        C956   1.206       .  T
C957        C958   1.207       .  T
C959        C960   1.207       .  T
O961       Zr973   2.440       .  S
O961        C963   1.286       .  A
O962       Zr999   2.426       .  S
O962        C963   1.285       .  A
C963       C1267   1.434       .  S
O964       Zr976   2.436       .  S
O964        C966   1.285       .  A
O965      Zr1000   2.430       .  S
O965        C966   1.286       .  A
C966       C1271   1.434       .  S
O967       Zr976   2.439       .  S
O967        C969   1.286       .  A
O968       Zr999   2.428       .  S
O968        C969   1.286       .  A
C969       C1280   1.435       .  S
O970       Zr973   2.437       .  S
O970        C972   1.286       .  A
O971      Zr1000   2.430       .  S
O971        C972   1.286       .  A
C972       C1278   1.434       .  S
Zr973       O974   2.434       .  S
Zr973       O975   2.436       .  S
Zr973       O979   2.371       .  S
Zr973       O980   2.370       .  S
Zr973      O1003   2.372       .  S
Zr973      O1005   2.371       .  S
O974       H1017   0.990       .  S
O975       H1016   0.990       .  S
O975       H1020   0.990       .  S
Zr976       O977   2.435       .  S
Zr976       O978   2.435       .  S
Zr976       O980   2.371       .  S
Zr976       O979   2.370       .  S
Zr976      O1004   2.370       .  S
Zr976      O1006   2.372       .  S
O977       H1018   0.990       .  S
O977       H1021   0.990       .  S
O978       H1011   0.990       .  S
O979       Zr999   2.382       .  S
O980      Zr1000   2.386       .  S
O980       H1007   0.966       .  S
O981       Zr993   2.438       .  S
O981        C983   1.286       .  A
O982      Zr1000   2.428       .  S
O982        C983   1.286       .  A
C983       C1265   1.434       .  S
O984       Zr996   2.438       .  S
O984        C986   1.286       .  A
O985       Zr999   2.428       .  S
O985        C986   1.286       .  A
C986       C1269   1.434       .  S
O987       Zr996   2.436       .  S
O987        C989   1.285       .  A
O988      Zr1000   2.428       .  S
O988        C989   1.286       .  A
C989       C1273   1.433       .  S
O990       Zr993   2.438       .  S
O990        C992   1.286       .  A
O991       Zr999   2.427       .  S
O991        C992   1.286       .  A
C992       C1275   1.434       .  S
Zr993       O994   2.436       .  S
Zr993       O995   2.434       .  S
Zr993      O1001   2.371       .  S
Zr993      O1002   2.371       .  S
Zr993      O1005   2.370       .  S
Zr993      O1003   2.372       .  S
O994       H1014   0.990       .  S
O994       H1019   0.990       .  S
O995       H1015   0.990       .  S
Zr996       O997   2.434       .  S
Zr996       O998   2.435       .  S
Zr996      O1002   2.371       .  S
Zr996      O1001   2.371       .  S
Zr996      O1006   2.371       .  S
Zr996      O1004   2.369       .  S
O997       H1013   0.990       .  S
O998       H1012   0.990       .  S
O998       H1022   0.990       .  S
Zr999      O1002   2.382       .  S
Zr999      O1004   2.384       .  S
Zr999      O1005   2.386       .  S
Zr1000     O1001   2.387       .  S
Zr1000     O1003   2.383       .  S
Zr1000     O1006   2.383       .  S
O1001      H1009   0.966       .  S
O1004      H1008   0.966       .  S
O1005      H1010   0.966       .  S
O1023     Zr1035   2.439       .  S
O1023      C1025   1.286       .  A
O1024      C1025   1.286       .  A
C1025      C1264   1.434       .  S
O1026     Zr1038   2.440       .  S
O1026      C1028   1.286       .  A
O1027      C1028   1.286       .  A
C1028      C1256   1.435       .  S
O1029     Zr1038   2.437       .  S
O1029      C1031   1.286       .  A
O1030      C1031   1.286       .  A
C1031      C1259   1.435       .  S
O1032     Zr1035   2.440       .  S
O1032      C1034   1.286       .  A
O1033      C1034   1.285       .  A
C1034      C1258   1.434       .  S
Zr1035     O1036   2.435       .  S
Zr1035     O1037   2.436       .  S
Zr1035     O1041   2.371       .  S
Zr1035     O1042   2.370       .  S
O1036      H1079   0.990       .  S
O1037      H1078   0.990       .  S
O1037      H1082   0.990       .  S
Zr1038     O1039   2.436       .  S
Zr1038     O1040   2.435       .  S
O1039      H1080   0.990       .  S
O1039      H1083   0.990       .  S
O1040      H1073   0.990       .  S
O1042      H1069   0.966       .  S
O1043     Zr1055   2.440       .  S
O1043      C1045   1.286       .  A
O1044     Zr1062   2.428       .  S
O1044      C1045   1.286       .  A
C1045      C1253   1.435       .  S
O1046     Zr1058   2.436       .  S
O1046      C1048   1.286       .  A
O1047      C1048   1.286       .  A
C1048      C1249   1.435       .  S
O1049     Zr1058   2.441       .  S
O1049      C1051   1.286       .  A
O1050      C1051   1.286       .  A
C1051      C1251   1.435       .  S
O1052     Zr1055   2.437       .  S
O1052      C1054   1.286       .  A
O1053     Zr1061   2.430       .  S
O1053      C1054   1.286       .  A
C1054      C1262   1.434       .  S
Zr1055     O1056   2.436       .  S
Zr1055     O1057   2.434       .  S
Zr1055     O1063   2.371       .  S
Zr1055     O1064   2.371       .  S
Zr1055     O1067   2.371       .  S
Zr1055     O1065   2.371       .  S
O1056      H1076   0.990       .  S
O1056      H1081   0.990       .  S
O1057      H1077   0.990       .  S
Zr1058     O1059   2.434       .  S
Zr1058     O1060   2.435       .  S
Zr1058     O1068   2.370       .  S
Zr1058     O1066   2.370       .  S
O1059      H1075   0.990       .  S
O1060      H1074   0.990       .  S
O1060      H1084   0.990       .  S
Zr1061     O1064   2.383       .  S
Zr1061     O1067   2.387       .  S
Zr1062     O1063   2.386       .  S
Zr1062     O1065   2.383       .  S
O1063      H1071   0.966       .  S
O1066      H1070   0.966       .  S
O1067      H1072   0.966       .  S
C1085      C1245   1.466       .  S
C1085      C1247   1.467       .  S
C1085      C1263   1.466       .  S
C1085      C1276   1.466       .  S
O1086     Zr1098   2.438       .  S
O1086      C1088   1.286       .  A
O1087      C1088   1.286       .  A
C1088      C1248   1.435       .  S
O1089     Zr1101   2.439   1_565  S
O1089      C1091   1.286       .  A
O1090      C1091   1.285       .  A
C1091      C1244   1.435       .  S
O1092     Zr1101   2.437       .  S
O1092      C1094   1.286       .  A
O1093      C1094   1.286       .  A
C1094      C1239   1.436       .  S
O1095     Zr1098   2.439   1_565  S
O1095      C1097   1.286       .  A
O1096      C1097   1.286       .  A
C1097      C1238   1.435       .  S
Zr1098     O1099   2.434       .  S
Zr1098     O1100   2.436       .  S
Zr1098     O1104   2.372       .  S
Zr1098     O1105   2.370   1_545  S
O1099      H1142   0.990       .  S
O1100      H1141   0.990       .  S
O1100      H1145   0.990       .  S
Zr1101     O1102   2.435       .  S
Zr1101     O1103   2.435       .  S
Zr1101     O1105   2.371   1_545  S
Zr1101     O1104   2.371       .  S
O1102      H1143   0.990   1_545  S
O1102      H1146   0.990       .  S
O1103      H1136   0.990       .  S
O1105      H1132   0.966       .  S
O1106     Zr1118   2.442   1_565  S
O1106      C1108   1.287       .  A
O1107     Zr1125   2.426       .  S
O1107      C1108   1.285       .  A
C1108      C1242   1.435       .  S
O1109     Zr1121   2.436       .  S
O1109      C1111   1.286       .  A
O1110     Zr1124   2.430       .  S
O1110      C1111   1.286       .  A
C1111      C1234   1.434       .  S
O1112     Zr1121   2.440   1_565  S
O1112      C1114   1.286       .  A
O1113     Zr1125   2.428       .  S
O1113      C1114   1.286       .  A
C1114      C1236   1.435       .  S
O1115     Zr1118   2.438       .  S
O1115      C1117   1.286       .  A
O1116     Zr1124   2.429       .  S
O1116      C1117   1.286       .  A
C1117      C1232   1.435       .  S
Zr1118     O1119   2.436       .  S
Zr1118     O1120   2.434       .  S
Zr1118     O1126   2.372   1_545  S
Zr1118     O1127   2.372       .  S
Zr1118     O1130   2.371       .  S
Zr1118     O1128   2.371   1_545  S
O1119      H1139   0.990   1_545  S
O1119      H1144   0.990       .  S
O1120      H1140   0.990   1_545  S
Zr1121     O1122   2.434       .  S
Zr1121     O1123   2.435       .  S
Zr1121     O1127   2.372       .  S
Zr1121     O1126   2.369   1_545  S
Zr1121     O1131   2.371   1_545  S
Zr1121     O1129   2.371       .  S
O1122      H1138   0.990       .  S
O1123      H1137   0.990   1_545  S
O1123      H1147   0.990       .  S
Zr1124     O1127   2.384       .  S
Zr1124     O1129   2.386       .  S
Zr1124     O1130   2.388       .  S
Zr1125     O1126   2.386       .  S
Zr1125     O1128   2.383       .  S
Zr1125     O1131   2.383       .  S
O1126      H1134   0.966       .  S
O1129      H1133   0.966       .  S
O1130      H1135   0.966       .  S
C1148      C1229   1.467       .  S
C1148      C1243   1.467       .  S
C1148      C1255   1.467       .  S
C1148      C1277   1.466       .  S
O1149     Zr1161   2.439       .  S
O1149      C1151   1.286       .  A
O1150      C1151   1.285       .  A
C1151      C1228   1.434       .  S
O1152     Zr1164   2.438   1_565  S
O1152      C1154   1.286       .  A
O1153     Zr1188   2.429       .  S
O1153      C1154   1.286       .  A
C1154      C1221   1.434       .  S
O1155     Zr1164   2.438       .  S
O1155      C1157   1.286       .  A
O1156      C1157   1.286       .  A
C1157      C1246   1.434       .  S
O1158     Zr1161   2.436   1_565  S
O1158      C1160   1.286       .  A
O1159     Zr1188   2.430       .  S
O1159      C1160   1.286       .  A
C1160      C1225   1.434       .  S
Zr1161     O1162   2.434       .  S
Zr1161     O1163   2.436       .  S
Zr1161     O1167   2.370       .  S
Zr1161     O1168   2.371   1_545  S
Zr1161     O1191   2.371   1_545  S
O1162      H1205   0.990       .  S
O1163      H1204   0.990       .  S
O1163      H1208   0.990       .  S
Zr1164     O1165   2.436       .  S
Zr1164     O1166   2.435       .  S
Zr1164     O1168   2.371   1_545  S
Zr1164     O1167   2.371       .  S
Zr1164     O1194   2.373   1_545  S
O1165      H1206   0.990   1_545  S
O1165      H1209   0.990       .  S
O1166      H1199   0.990       .  S
O1168     Zr1188   2.387       .  S
O1168      H1195   0.966       .  S
O1169     Zr1181   2.438   1_565  S
O1169      C1171   1.286       .  A
O1170      C1171   1.286       .  A
C1171      C1223   1.434       .  S
O1172     Zr1184   2.440       .  S
O1172      C1174   1.286       .  A
O1173     Zr1187   2.426       .  S
O1173      C1174   1.285       .  A
C1174      C1218   1.435       .  S
O1175     Zr1184   2.438   1_565  S
O1175      C1177   1.286       .  A
O1176      C1177   1.286       .  A
C1177      C1230   1.435       .  S
O1178     Zr1181   2.440       .  S
O1178      C1180   1.286       .  A
O1179     Zr1187   2.426       .  S
O1179      C1180   1.285       .  A
C1180      C1219   1.435       .  S
Zr1181     O1182   2.436       .  S
Zr1181     O1183   2.434       .  S
Zr1181     O1189   2.372   1_545  S
Zr1181     O1190   2.371       .  S
Zr1181     O1193   2.370       .  S
O1182      H1202   0.990   1_545  S
O1182      H1207   0.990   1_545  S
O1183      H1203   0.990   1_545  S
Zr1184     O1185   2.434       .  S
Zr1184     O1186   2.435       .  S
Zr1184     O1190   2.371       .  S
Zr1184     O1189   2.371   1_545  S
Zr1184     O1192   2.369       .  S
O1185      H1201   0.990       .  S
O1186      H1200   0.990   1_545  S
O1186      H1210   0.990       .  S
Zr1187     O1190   2.382       .  S
Zr1187     O1192   2.385       .  S
Zr1187     O1193   2.385       .  S
Zr1188     O1191   2.383       .  S
Zr1188     O1194   2.384       .  S
O1189      H1197   0.966       .  S
O1192      H1196   0.966       .  S
O1193      H1198   0.966       .  S
C1211      C1226   1.466       .  S
C1211      C1241   1.467       .  S
C1211      C1254   1.467       .  S
C1211      C1274   1.465       .  S
C1212      C1220   1.466       .  S
C1212      C1233   1.466       .  S
C1212      C1250   1.467       .  S
C1212      C1279   1.467       .  S
C1213      C1227   1.466       .  S
C1213      C1231   1.466       .  S
C1213      C1261   1.466       .  S
C1213      C1270   1.466       .  S
C1214      C1224   1.466       .  S
C1214      C1235   1.466       .  S
C1214      C1252   1.467       .  S
C1214      C1272   1.466       .  S
C1215      C1217   1.467       .  S
C1215      C1240   1.467       .  S
C1215      C1260   1.467       .  S
C1215      C1268   1.466       .  S
C1216      C1222   1.466       .  S
C1216      C1237   1.466       .  S
C1216      C1257   1.466       .  S
C1216      C1266   1.466       .  S
C1217      C1218   1.207       .  T
C1219      C1220   1.207       .  T
C1221      C1222   1.207       .  T
C1223      C1224   1.206       .  T
C1225      C1226   1.206       .  T
C1227      C1228   1.206       .  T
C1229      C1230   1.207       .  T
C1231      C1232   1.207       .  T
C1233      C1234   1.206       .  T
C1235      C1236   1.207       .  T
C1237      C1238   1.207       .  T
C1239      C1240   1.207       .  T
C1241      C1242   1.207       .  T
C1243      C1244   1.207       .  T
C1245      C1246   1.206       .  T
C1247      C1248   1.207       .  T
C1249      C1250   1.207       .  T
C1251      C1252   1.207       .  T
C1253      C1254   1.207       .  T
C1255      C1256   1.207       .  T
C1257      C1258   1.206       .  T
C1259      C1260   1.207       .  T
C1261      C1262   1.206       .  T
C1263      C1264   1.206       .  T
C1265      C1266   1.206       .  T
C1267      C1268   1.206       .  T
C1269      C1270   1.206       .  T
C1271      C1272   1.207       .  T
C1273      C1274   1.206       .  T
C1275      C1276   1.206       .  T
C1277      C1278   1.207       .  T
C1279      C1280   1.207       .  T
