geometry optimzed in LAMMPS
_audit_creation_date              2020-11-30 
_audit_creation_method            'lammps2cif' 
_symmetry_space_group_name_H-M    'P1' 
_symmetry_Int_Tables_number       1 
_symmetry_cell_setting            triclinic 
loop_ 
_symmetry_equiv_pos_as_xyz 
  x,y,z 
_cell_length_a                    34.9618771 
_cell_length_b                    34.47534533358324 
_cell_length_c                    32.723869963095304 
_cell_angle_alpha                 90.01259331752009 
_cell_angle_beta                  90.0716089270138 
_cell_angle_gamma                 90.03080733853737 
loop_ 
_atom_site_label 
_atom_site_type_symbol 
_atom_site_fract_x 
_atom_site_fract_y 
_atom_site_fract_z 
_atom_site_charge 
C1          C  0.37534883  0.99177980  0.06724365     0.80100
N2          N  0.37924371  0.45300110  0.07293444    -0.78200
C3          C  0.35743445  0.43393718  0.10052960     0.82600
N4          N  0.33116581  0.45396088  0.12230644    -0.78100
C5          C  0.32620826  0.99265573  0.11644782     0.82700
N6          N  0.34789035  0.01170506  0.08816541    -0.79800
C7          C  0.32594342  0.33295740  0.11790716     0.80100
N8          N  0.33065757  0.37181299  0.12285790    -0.78200
C9          C  0.35741932  0.39129820  0.10122180     0.82600
N10         N  0.38004829  0.37147426  0.07510254    -0.78100
C11         C  0.37586933  0.33260959  0.06990490     0.82700
N12         N  0.34797081  0.31326407  0.09057332    -0.79800
C13         C  0.33813259  0.24010069  0.36970756     0.80100
N14         N  0.33158547  0.20167571  0.37566769    -0.78200
C15         C  0.30428165  0.18280984  0.35410089     0.82600
N16         N  0.28297506  0.20279907  0.32691930    -0.78100
C17         C  0.28890837  0.24123214  0.32051114     0.82700
N18         N  0.31734387  0.25998103  0.34122468    -0.79800
C19         C  0.28354927  0.08226464  0.32199895     0.80100
N20         N  0.31072443  0.06215466  0.34292948    -0.78200
C21         C  0.33333330  0.08129704  0.37011809     0.82600
N22         N  0.32964049  0.12018208  0.37505210    -0.78100
C23         C  0.30283165  0.14026433  0.35431529     0.82700
N24         N  0.27990959  0.12116961  0.32774213    -0.79800
C25         C  0.03266638  0.08165518  0.31707776     0.80100
N26         N  0.05992617  0.06235698  0.29551033    -0.78200
C27         C  0.08246343  0.08246563  0.26909306     0.82600
N28         N  0.07861916  0.12153428  0.26564993    -0.78100
C29         C  0.05160842  0.14077124  0.28705399     0.82700
N30         N  0.02878739  0.12067398  0.31271944    -0.79800
C31         C  0.08245015  0.24210789  0.27085253     0.80100
N32         N  0.07828782  0.20318157  0.26635711    -0.78200
C33         C  0.05176412  0.18337882  0.28796673     0.82600
N34         N  0.02994895  0.20264931  0.31538692    -0.78100
C35         C  0.03360054  0.24158042  0.32033504     0.82700
N36         N  0.06030564  0.26151837  0.29835988    -0.79800
O37         O  0.14572244  0.08519228  0.24906921    -0.78600
C38         C  0.26168211  0.06467991  0.28866577     0.82500
O39         O  0.21915941  0.11926293  0.13248730    -0.79700
O40         O  0.28944101  0.00031859  0.17535903    -0.81200
O41         O  0.16900999  0.45078339  0.21740244    -0.81000
O42         O  0.11437866  0.03127329  0.23362357    -0.79600
Zn43       Zn  0.19798843  0.08031627  0.22912575     1.55700
O44         O  0.23125867  0.45135395  0.23279716    -0.81000
Cd45       Cd  0.15756094  0.00645092  0.19814688     1.59700
Cd46       Cd  0.21790637  0.05714779  0.13706275     1.59600
O47         O  0.13775237  0.00000029  0.13971255    -0.81000
O48         O  0.20578849  0.03759900  0.19491992    -1.91500
Cd49       Cd  0.24855524  0.00725121  0.21978578     1.59900
O50         O  0.17611913  0.03348412  0.09754486    -0.80900
O51         O  0.27241243  0.03326468  0.27166152    -0.79600
C52         C  0.21346358  0.14092091  0.16354817     0.82900
C53         C  0.11567946  0.06479628  0.24981600     0.82600
O54         O  0.23333476  0.08377896  0.27547809    -0.78600
C55         C  0.19959216  0.43355721  0.22826849     0.83400
O56         O  0.20623779  0.12632657  0.19804898    -0.78600
C57         C  0.14754366  0.01105105  0.10412248     0.83500
C58         C  0.29462307  0.01127849  0.13857747     0.83900
O59         O  0.27146234  0.03400926  0.11994558    -0.81100
O60         O  0.23724480  0.24077446  0.27558158    -0.78600
C61         C  0.11606581  0.25989787  0.25175789     0.82500
O62         O  0.22028128  0.20554930  0.13334700    -0.79700
O63         O  0.14081379  0.32500815  0.13933646    -0.81200
O64         O  0.23138952  0.37364909  0.23451101    -0.81000
O65         O  0.27572120  0.29184529  0.27209621    -0.79600
Zn66       Zn  0.19925942  0.24419126  0.23104996     1.55700
O67         O  0.16939887  0.37345976  0.21783344    -0.81000
Cd68       Cd  0.24929618  0.31798459  0.22158376     1.59700
Cd69       Cd  0.21967556  0.26725189  0.13905677     1.59600
O70         O  0.28907151  0.32624235  0.17664829    -0.81000
O71         O  0.20681842  0.28685334  0.19675934    -1.91500
Cd72       Cd  0.15837793  0.31767315  0.19868008     1.59900
O73         O  0.27291534  0.29004055  0.12239334    -0.80900
O74         O  0.11438545  0.29245762  0.23342736    -0.79600
C75         C  0.21376963  0.18368803  0.16397588     0.82900
C76         C  0.26602002  0.25972977  0.28831361     0.82600
O77         O  0.14665947  0.24016348  0.25269588    -0.78600
C78         C  0.19971169  0.39110903  0.22887518     0.83400
O79         O  0.20644177  0.19806433  0.19867739    -0.78600
C80         C  0.29485713  0.31433768  0.14035475     0.83500
C81         C  0.15176715  0.31420418  0.10401045     0.83900
O82         O  0.17994633  0.29124211  0.09833084    -0.81100
C83         C  0.12737709  0.99253510  0.07014072     0.80100
N84         N  0.13218490  0.45368409  0.06570490    -0.78200
C85         C  0.11070647  0.43330489  0.03881893     0.82600
N86         N  0.08381694  0.45208205  0.51647096    -0.78100
C87         C  0.07789483  0.99078812  0.52118692     0.82700
N88         N  0.09925546  0.01110562  0.04881070    -0.79800
C89         C  0.08298209  0.33134051  0.52053185     0.80100
N90         N  0.10604727  0.31197019  0.04709240    -0.78200
C91         C  0.13241009  0.33210093  0.06926504     0.82600
N92         N  0.13474816  0.37133667  0.06554871    -0.78100
C93         C  0.11206173  0.39060942  0.03879499     0.82700
N94         N  0.08595055  0.37045657  0.51694728    -0.79800
O95         O  0.48331707  0.08244762  0.36420585    -0.78600
C96         C  0.36653966  0.06312922  0.38878094     0.82500
O97         O  0.46941442  0.11439991  0.50656690    -0.79700
O98         O  0.38660450  0.99833233  0.99749429    -0.81200
O99         O  0.48157135  0.44837722  0.40533760    -0.81000
O100        O  0.02178778  0.03123963  0.36590743    -0.79600
Zn101      Zn  0.44865018  0.07979681  0.41084187     1.55700
O102        O  0.41940476  0.44772007  0.42116438    -0.81000
Cd103      Cd  0.49884925  0.00463685  0.41789018     1.59700
Cd104      Cd  0.46815385  0.05300067  0.50104547     1.60000
O105        O  0.04064899  0.99772682  0.46199567    -0.81000
O106        O  0.45619479  0.03517991  0.44310336    -1.91500
Cd107      Cd  0.40789631  0.00390031  0.43928898     1.59900
O108        O  0.02175249  0.03001634  0.01792811    -0.80900
O109        O  0.36553800  0.02879142  0.40292710    -0.79600
C110        C  0.46475886  0.13847106  0.47733245     0.82900
C111        C  0.51111632  0.06321415  0.34999305     0.82600
O112        O  0.39619497  0.08403429  0.39128643    -0.78600
C113        C  0.45004133  0.43052793  0.41055251     0.83400
O114        O  0.45768693  0.12734232  0.44134628    -0.78600
C115        C  0.04555519  0.00825143  0.49902102     0.83500
C116        C  0.39650252  0.00903027  0.03323434     0.83900
O117        O  0.42595772  0.03012725  0.04009515    -0.81100
O118        O  0.42854470  0.33286185  0.02654005    -0.78600
C119        C  0.04943416  0.31307455  0.50208813     0.82500
O120        O  0.44494314  0.36483847  0.38627133    -0.79700
O121        O  0.02536512  0.24766523  0.39073182    -0.81200
O122        O  0.43481521  0.19830081  0.48846317    -0.81000
O123        O  0.39028552  0.28149534  0.02293519    -0.79600
Zn124      Zn  0.46632940  0.32934142  0.48206034     1.55700
O125        O  0.49630723  0.19788451  0.46976323    -0.81000
Cd126      Cd  0.41657103  0.25390973  0.47348366     1.59700
Cd127      Cd  0.44572574  0.30388605  0.39122877     1.59600
O128        O  0.37621342  0.24545813  0.42832147    -0.81000
O129        O  0.45890243  0.28523606  0.44867823    -1.91500
Cd130      Cd  0.00732760  0.25407062  0.45034256     1.59900
O131        O  0.39224579  0.28179335  0.37426112    -0.80900
O132        O  0.05109688  0.28009187  0.48459687    -0.79600
C133        C  0.45141173  0.38856262  0.41535086     0.82900
C134        C  0.39966073  0.31389018  0.03882566     0.82600
O135        O  0.01884496  0.33277485  0.00299719    -0.78600
C136        C  0.46625675  0.18056841  0.48216178     0.83400
O137        O  0.45933919  0.37714625  0.45105643    -0.78600
C138        C  0.37007467  0.25773622  0.39213510     0.83500
C139        C  0.51436976  0.25891872  0.35550424     0.83900
O140        O  0.48564392  0.28121007  0.35015866    -0.81100
C141        C  0.37534696  0.99177852  0.56723845     0.80100
N142        N  0.37924282  0.45300015  0.57293042    -0.78200
C143        C  0.35743473  0.43393656  0.60052676     0.82600
N144        N  0.33116617  0.45396037  0.62230392    -0.78100
C145        C  0.32620772  0.99265505  0.61644436     0.82700
N146        N  0.34788888  0.01170398  0.58816074    -0.79800
C147        C  0.32594723  0.33295628  0.61790788     0.80100
N148        N  0.33066021  0.37181213  0.62285725    -0.78200
C149        C  0.35742120  0.39129757  0.60122049     0.82600
N150        N  0.38005078  0.37147358  0.57510167    -0.78100
C151        C  0.37587304  0.33260858  0.56990529     0.82700
N152        N  0.34797520  0.31326279  0.59057455    -0.79800
C153        C  0.33812993  0.24010142  0.86970831     0.80100
N154        N  0.33158216  0.20167669  0.87566929    -0.78200
C155        C  0.30427816  0.18281082  0.85410279     0.82600
N156        N  0.28297194  0.20279996  0.82692069    -0.78100
C157        C  0.28890604  0.24123282  0.82051180     0.82700
N158        N  0.31734175  0.25998155  0.84122494    -0.79800
C159        C  0.28354753  0.08226561  0.82200008     0.80100
N160        N  0.31072237  0.06215584  0.84293130    -0.78200
C161        C  0.33332993  0.08129835  0.87012104     0.82600
N162        N  0.32963643  0.12018324  0.87505532    -0.78100
C163        C  0.30282798  0.14026533  0.85431766     0.82700
N164        N  0.27990704  0.12117042  0.82774359    -0.79800
C165        C  0.03266641  0.08165825  0.81708122     0.80100
N166        N  0.05992616  0.06235968  0.79551391    -0.78200
C167        C  0.08246414  0.08246819  0.76909707     0.82600
N168        N  0.07862030  0.12153693  0.76565410    -0.78100
C169        C  0.05160961  0.14077420  0.78705793     0.82700
N170        N  0.02878809  0.12067713  0.81272312    -0.79800
C171        C  0.08245030  0.24211101  0.77085401     0.80100
N172        N  0.07828832  0.20318453  0.76635960    -0.78200
C173        C  0.05176502  0.18338188  0.78796993     0.82600
N174        N  0.02994958  0.20265274  0.81538953    -0.78100
C175        C  0.03360057  0.24158402  0.82033669     0.82700
N176        N  0.06030558  0.26152189  0.79836105    -0.79800
O177        O  0.14572248  0.08519482  0.74907001    -0.78600
C178        C  0.26168162  0.06468089  0.78866601     0.82500
O179        O  0.21915965  0.11926325  0.63248713    -0.79700
O180        O  0.28944220  0.00031952  0.67535721    -0.81200
O181        O  0.16901091  0.45078472  0.71740396    -0.81000
O182        O  0.11437913  0.03127469  0.73362843    -0.79600
Zn183      Zn  0.19798842  0.08031763  0.72912575     1.55700
O184        O  0.23126028  0.45135510  0.73279585    -0.81000
Cd185      Cd  0.15756071  0.00645256  0.69814987     1.59700
Cd186      Cd  0.21790608  0.05714800  0.63706297     1.59600
O187        O  0.13775084  0.00000161  0.63971616    -0.81000
O188        O  0.20578882  0.03760001  0.69492049    -1.91500
Cd189      Cd  0.24855665  0.00725258  0.71978483     1.59900
O190        O  0.17611771  0.03348379  0.59754701    -0.80900
O191        O  0.27241297  0.03326627  0.77166118    -0.79600
C192        C  0.21346434  0.14092145  0.66354798     0.82900
C193        C  0.11567982  0.06479840  0.74981923     0.82600
O194        O  0.23333411  0.08377968  0.77547828    -0.78600
C195        C  0.19959363  0.43355838  0.72826812     0.83400
O196        O  0.20623861  0.12632741  0.69804889    -0.78600
C197        C  0.14754202  0.01105128  0.60412568     0.83500
C198        C  0.29462298  0.01127829  0.63857503     0.83900
O199        O  0.27146144  0.03400860  0.61994361    -0.81100
O200        O  0.23724369  0.24077524  0.77558093    -0.78600
C201        C  0.11606600  0.25990061  0.75175839     0.82500
O202        O  0.22028378  0.20554959  0.63334693    -0.79700
O203        O  0.14081609  0.32500779  0.63933512    -0.81200
O204        O  0.23139114  0.37365009  0.73450974    -0.81000
O205        O  0.27572068  0.29184569  0.77209628    -0.79600
Zn206      Zn  0.19925913  0.24419232  0.73104900     1.55700
O207        O  0.16940062  0.37346104  0.71783162    -0.81000
Cd208      Cd  0.24929758  0.31798512  0.72158308     1.59700
Cd209      Cd  0.21967838  0.26725209  0.63905671     1.59600
O210        O  0.28907447  0.32624193  0.67664861    -0.81000
O211        O  0.20681966  0.28685415  0.69675867    -1.91500
Cd212      Cd  0.15837931  0.31767422  0.69867913     1.59900
O213        O  0.27291882  0.29003972  0.62239388    -0.80900
O214        O  0.11438605  0.29246026  0.73342753    -0.79600
C215        C  0.21377053  0.18368856  0.66397553     0.82900
C216        C  0.26601874  0.25973034  0.78831354     0.82600
O217        O  0.14665932  0.24016566  0.75269558    -0.78600
C218        C  0.19971337  0.39111016  0.72887385     0.83400
O219        O  0.20644144  0.19806509  0.69867667    -0.78600
C220        C  0.29486068  0.31433672  0.64035533     0.83500
C221        C  0.15177032  0.31420394  0.60400935     0.83900
O222        O  0.17994997  0.29124237  0.59833018    -0.81100
C223        C  0.12737525  0.99253462  0.57014455     0.80100
N224        N  0.13218383  0.45368373  0.56570840    -0.78200
C225        C  0.11070660  0.43330454  0.53882129     0.82600
N226        N  0.08381651  0.45208258  0.01646916    -0.78100
C227        C  0.07789515  0.99078882  0.02118467     0.82700
N228        N  0.09925410  0.01110497  0.54881375    -0.79800
C229        C  0.08297794  0.33134144  0.02053370     0.80100
N230        N  0.10605185  0.31196941  0.54709023    -0.78200
C231        C  0.13241371  0.33210053  0.56926375     0.82600
N232        N  0.13475036  0.37133643  0.56554882    -0.78100
C233        C  0.11206342  0.39060913  0.53879564     0.82700
N234        N  0.08594788  0.37045721  0.01694765    -0.79800
O235        O  0.48331591  0.08245105  0.86420851    -0.78600
C236        C  0.36653636  0.06313097  0.88878406     0.82500
O237        O  0.46941359  0.11440207  0.00656873    -0.79700
O238        O  0.38660536  0.99832947  0.49748908    -0.81200
O239        O  0.48156565  0.44837916  0.90533635    -0.81000
O240        O  0.02178484  0.03124160  0.86590899    -0.79600
Zn241      Zn  0.44864732  0.07979878  0.91084361     1.55700
O242        O  0.41940043  0.44772246  0.92116918    -0.81000
Cd243      Cd  0.49884527  0.00463795  0.91789101     1.59700
Cd244      Cd  0.46815386  0.05300273  0.00104736     1.60000
O245        O  0.04064583  0.99772615  0.96199553    -0.81000
O246        O  0.45619223  0.03518208  0.94310556    -1.91500
Cd247      Cd  0.40789317  0.00390310  0.93929351     1.59900
O248        O  0.02175134  0.03001388  0.51792865    -0.80900
O249        O  0.36553408  0.02879420  0.90293284    -0.79600
C250        C  0.46475572  0.13847300  0.97733447     0.82900
C251        C  0.51111485  0.06321708  0.84999559     0.82600
O252        O  0.39619223  0.08403553  0.89128724    -0.78600
C253        C  0.45003589  0.43053013  0.91055399     0.83400
O254        O  0.45768238  0.12734399  0.94134874    -0.78600
C255        C  0.04555459  0.00825218  0.99902006     0.83500
C256        C  0.39650133  0.00902875  0.53322939     0.83900
O257        O  0.42595571  0.03012654  0.54009116    -0.81100
O258        O  0.42854832  0.33286083  0.52653985    -0.78600
C259        C  0.04942982  0.31307601  0.00208983     0.82500
O260        O  0.44493862  0.36484072  0.88627195    -0.79700
O261        O  0.02536309  0.24766870  0.89073327    -0.81200
O262        O  0.43481184  0.19830274  0.98846466    -0.81000
O263        O  0.39028958  0.28149388  0.52293578    -0.79600
Zn264      Zn  0.46632520  0.32934335  0.98206059     1.55700
O265        O  0.49630355  0.19788651  0.96976382    -0.81000
Cd266      Cd  0.41656762  0.25391138  0.97348391     1.59700
Cd267      Cd  0.44572284  0.30388800  0.89122873     1.59600
O268        O  0.37621051  0.24545927  0.92832194    -0.81000
O269        O  0.45889885  0.28523804  0.94867846    -1.91500
Cd270      Cd  0.00732365  0.25407281  0.95034369     1.59900
O271        O  0.39224324  0.28179388  0.87426115    -0.80900
O272        O  0.05109226  0.28009302  0.98459933    -0.79600
C273        C  0.45140632  0.38856475  0.91535184     0.82900
C274        C  0.39966456  0.31388901  0.53882595     0.82600
O275        O  0.01884894  0.33277270  0.50299675    -0.78600
C276        C  0.46625337  0.18057040  0.98216319     0.83400
O277        O  0.45933376  0.37714819  0.95105735    -0.78600
C278        C  0.37007203  0.25773698  0.89213543     0.83500
C279        C  0.51436870  0.25892245  0.85550531     0.83900
O280        O  0.48564249  0.28121325  0.85015897    -0.81100
C281        C  0.37534885  0.49177982  0.06724368     0.80100
N282        N  0.37924368  0.95300108  0.07293443    -0.78200
C283        C  0.35743443  0.93393717  0.10052957     0.82600
N284        N  0.33116581  0.95396090  0.12230645    -0.78100
C285        C  0.32620820  0.49265570  0.11644777     0.82700
N286        N  0.34789031  0.51170505  0.08816538    -0.79800
C287        C  0.32594340  0.83295739  0.11790719     0.80100
N288        N  0.33065753  0.87181299  0.12285788    -0.78200
C289        C  0.35741926  0.89129820  0.10122181     0.82600
N290        N  0.38004828  0.87147426  0.07510256    -0.78100
C291        C  0.37586938  0.83260957  0.06990500     0.82700
N292        N  0.34797090  0.81326404  0.09057343    -0.79800
C293        C  0.33813257  0.74010069  0.36970758     0.80100
N294        N  0.33158543  0.70167570  0.37566770    -0.78200
C295        C  0.30428162  0.68280984  0.35410091     0.82600
N296        N  0.28297506  0.70279907  0.32691928    -0.78100
C297        C  0.28890842  0.74123214  0.32051109     0.82700
N298        N  0.31734387  0.75998103  0.34122467    -0.79800
C299        C  0.28354927  0.58226461  0.32199897     0.80100
N300        N  0.31072442  0.56215466  0.34292950    -0.78200
C301        C  0.33333330  0.58129705  0.37011809     0.82600
N302        N  0.32964046  0.62018208  0.37505210    -0.78100
C303        C  0.30283161  0.64026433  0.35431530     0.82700
N304        N  0.27990956  0.62116960  0.32774214    -0.79800
C305        C  0.03266643  0.58165517  0.31707780     0.80100
N306        N  0.05992626  0.56235697  0.29551037    -0.78200
C307        C  0.08246346  0.58246562  0.26909304     0.82600
N308        N  0.07861915  0.62153427  0.26564987    -0.78100
C309        C  0.05160843  0.64077123  0.28705400     0.82700
N310        N  0.02878747  0.62067396  0.31271949    -0.79800
C311        C  0.08245016  0.74210788  0.27085252     0.80100
N312        N  0.07828781  0.70318157  0.26635710    -0.78200
C313        C  0.05176410  0.68337881  0.28796671     0.82600
N314        N  0.02994891  0.70264930  0.31538691    -0.78100
C315        C  0.03360050  0.74158042  0.32033498     0.82700
N316        N  0.06030562  0.76151837  0.29835985    -0.79800
O317        O  0.14572250  0.58519231  0.24906920    -0.78600
C318        C  0.26168215  0.56467989  0.28866577     0.82500
O319        O  0.21915960  0.61926293  0.13248733    -0.79700
O320        O  0.28944097  0.50031858  0.17535902    -0.81200
O321        O  0.16900995  0.95078339  0.21740244    -0.81000
O322        O  0.11437876  0.53127328  0.23362360    -0.79600
Zn323      Zn  0.19798863  0.58031627  0.22912575     1.55700
O324        O  0.23125864  0.95135395  0.23279716    -0.81000
Cd325      Cd  0.15756094  0.50645092  0.19814688     1.59700
Cd326      Cd  0.21790634  0.55714779  0.13706275     1.59600
O327        O  0.13775238  0.50000028  0.13971254    -0.81000
O328        O  0.20578858  0.53759898  0.19491991    -1.91500
Cd329      Cd  0.24855522  0.50725121  0.21978579     1.59900
O330        O  0.17611910  0.53348414  0.09754486    -0.80900
O331        O  0.27241241  0.53326464  0.27166154    -0.79600
C332        C  0.21346359  0.64092091  0.16354816     0.82900
C333        C  0.11567952  0.56479629  0.24981598     0.82600
O334        O  0.23333488  0.58377902  0.27547805    -0.78600
C335        C  0.19959213  0.93355721  0.22826850     0.83400
O336        O  0.20623776  0.62632656  0.19804896    -0.78600
C337        C  0.14754367  0.51105105  0.10412248     0.83500
C338        C  0.29462300  0.51127847  0.13857746     0.83900
O339        O  0.27146228  0.53400925  0.11994558    -0.81100
O340        O  0.23724478  0.74077446  0.27558159    -0.78600
C341        C  0.11606589  0.75989785  0.25175790     0.82500
O342        O  0.22028124  0.70554929  0.13334699    -0.79700
O343        O  0.14081375  0.82500814  0.13933647    -0.81200
O344        O  0.23138948  0.87364909  0.23451101    -0.81000
O345        O  0.27572116  0.79184529  0.27209621    -0.79600
Zn346      Zn  0.19925940  0.74419125  0.23104996     1.55700
O347        O  0.16939883  0.87345976  0.21783344    -0.81000
Cd348      Cd  0.24929614  0.81798458  0.22158376     1.59700
Cd349      Cd  0.21967551  0.76725188  0.13905677     1.59600
O350        O  0.28907147  0.82624234  0.17664829    -0.81000
O351        O  0.20681838  0.78685334  0.19675934    -1.91500
Cd352      Cd  0.15837790  0.81767315  0.19868007     1.59900
O353        O  0.27291530  0.79004055  0.12239334    -0.80900
O354        O  0.11438556  0.79245761  0.23342738    -0.79600
C355        C  0.21376959  0.68368802  0.16397587     0.82900
C356        C  0.26602001  0.75972976  0.28831360     0.82600
O357        O  0.14665954  0.74016346  0.25269591    -0.78600
C358        C  0.19971165  0.89110902  0.22887518     0.83400
O359        O  0.20644172  0.69806432  0.19867739    -0.78600
C360        C  0.29485710  0.81433767  0.14035474     0.83500
C361        C  0.15176712  0.81420417  0.10401046     0.83900
O362        O  0.17994629  0.79124210  0.09833085    -0.81100
C363        C  0.12737713  0.49253509  0.07014070     0.80100
N364        N  0.13218487  0.95368410  0.06570490    -0.78200
C365        C  0.11070646  0.93330489  0.03881896     0.82600
N366        N  0.08381691  0.95208206  0.51647098    -0.78100
C367        C  0.07789483  0.49078812  0.52118689     0.82700
N368        N  0.09925553  0.51110563  0.04881065    -0.79800
C369        C  0.08298207  0.83134055  0.52053187     0.80100
N370        N  0.10604726  0.81197020  0.04709241    -0.78200
C371        C  0.13241010  0.83210092  0.06926503     0.82600
N372        N  0.13474826  0.87133666  0.06554866    -0.78100
C373        C  0.11206175  0.89060942  0.03879499     0.82700
N374        N  0.08595051  0.87045659  0.51694729    -0.79800
O375        O  0.48331708  0.58244761  0.36420585    -0.78600
C376        C  0.36653968  0.56312922  0.38878093     0.82500
O377        O  0.46941435  0.61439991  0.50656692    -0.79700
O378        O  0.38660452  0.49833236  0.99749431    -0.81200
O379        O  0.48157140  0.94837723  0.40533757    -0.81000
O380        O  0.02178774  0.53123963  0.36590743    -0.79600
Zn381      Zn  0.44865017  0.57979681  0.41084187     1.55700
O382        O  0.41940485  0.94772006  0.42116441    -0.81000
Cd383      Cd  0.49884922  0.50463685  0.41789018     1.59700
Cd384      Cd  0.46815382  0.55300067  0.50104546     1.60000
O385        O  0.04064884  0.49772680  0.46199570    -0.81000
O386        O  0.45619475  0.53517990  0.44310336    -1.91500
Cd387      Cd  0.40789627  0.50390031  0.43928898     1.59900
O388        O  0.02175244  0.53001633  0.01792811    -0.80900
O389        O  0.36553798  0.52879143  0.40292711    -0.79600
C390        C  0.46475892  0.63847105  0.47733246     0.82900
C391        C  0.51111635  0.56321416  0.34999306     0.82600
O392        O  0.39619502  0.58403426  0.39128640    -0.78600
C393        C  0.45004141  0.93052793  0.41055250     0.83400
O394        O  0.45768710  0.62734232  0.44134626    -0.78600
C395        C  0.04555512  0.50825142  0.49902102     0.83500
C396        C  0.39650258  0.50903028  0.03323436     0.83900
O397        O  0.42595781  0.53012719  0.04009517    -0.81100
O398        O  0.42854471  0.83286184  0.02654003    -0.78600
C399        C  0.04943418  0.81307454  0.50208813     0.82500
O400        O  0.44494314  0.86483847  0.38627134    -0.79700
O401        O  0.02536506  0.74766523  0.39073177    -0.81200
O402        O  0.43481523  0.69830080  0.48846317    -0.81000
O403        O  0.39028548  0.78149535  0.02293521    -0.79600
Zn404      Zn  0.46632940  0.82934142  0.48206035     1.55700
O405        O  0.49630727  0.69788452  0.46976322    -0.81000
Cd406      Cd  0.41657101  0.75390973  0.47348365     1.59700
Cd407      Cd  0.44572571  0.80388604  0.39122878     1.59600
O408        O  0.37621338  0.74545813  0.42832148    -0.81000
O409        O  0.45890257  0.78523602  0.44867823    -1.91500
Cd410      Cd  0.00732757  0.75407062  0.45034256     1.59900
O411        O  0.39224575  0.78179335  0.37426113    -0.80900
O412        O  0.05109697  0.78009188  0.48459684    -0.79600
C413        C  0.45141179  0.88856262  0.41535085     0.82900
C414        C  0.39966073  0.81389019  0.03882569     0.82600
O415        O  0.01884495  0.83277485  0.00299719    -0.78600
C416        C  0.46625678  0.68056841  0.48216179     0.83400
O417        O  0.45933920  0.87714624  0.45105644    -0.78600
C418        C  0.37007463  0.75773621  0.39213511     0.83500
C419        C  0.51436972  0.75891871  0.35550417     0.83900
O420        O  0.48564387  0.78121008  0.35015860    -0.81100
C421        C  0.37534699  0.49177854  0.56723846     0.80100
N422        N  0.37924278  0.95300013  0.57293041    -0.78200
C423        C  0.35743469  0.93393655  0.60052676     0.82600
N424        N  0.33116614  0.95396037  0.62230391    -0.78100
C425        C  0.32620773  0.49265505  0.61644436     0.82700
N426        N  0.34788888  0.51170398  0.58816072    -0.79800
C427        C  0.32594723  0.83295626  0.61790787     0.80100
N428        N  0.33066018  0.87181211  0.62285725    -0.78200
C429        C  0.35742116  0.89129757  0.60122048     0.82600
N430        N  0.38005075  0.87147358  0.57510166    -0.78100
C431        C  0.37587304  0.83260859  0.56990527     0.82700
N432        N  0.34797519  0.81326278  0.59057453    -0.79800
C433        C  0.33812992  0.74010142  0.86970830     0.80100
N434        N  0.33158214  0.70167669  0.87566930    -0.78200
C435        C  0.30427814  0.68281082  0.85410278     0.82600
N436        N  0.28297192  0.70279995  0.82692071    -0.78100
C437        C  0.28890600  0.74123282  0.82051181     0.82700
N438        N  0.31734172  0.75998155  0.84122494    -0.79800
C439        C  0.28354750  0.58226560  0.82200010     0.80100
N440        N  0.31072233  0.56215584  0.84293130    -0.78200
C441        C  0.33332991  0.58129834  0.87012106     0.82600
N442        N  0.32963644  0.62018323  0.87505531    -0.78100
C443        C  0.30282804  0.64026533  0.85431763     0.82700
N444        N  0.27990703  0.62117042  0.82774358    -0.79800
C445        C  0.03266641  0.58165823  0.81708123     0.80100
N446        N  0.05992624  0.56235968  0.79551397    -0.78200
C447        C  0.08246414  0.58246818  0.76909706     0.82600
N448        N  0.07862029  0.62153691  0.76565406    -0.78100
C449        C  0.05160960  0.64077420  0.78705794     0.82700
N450        N  0.02878807  0.62067711  0.81272309    -0.79800
C451        C  0.08245028  0.74211106  0.77085398     0.80100
N452        N  0.07828832  0.70318458  0.76635962    -0.78200
C453        C  0.05176508  0.68338189  0.78796996     0.82600
N454        N  0.02994960  0.70265276  0.81538954    -0.78100
C455        C  0.03360057  0.74158403  0.82033666     0.82700
N456        N  0.06030554  0.76152196  0.79836102    -0.79800
O457        O  0.14572248  0.58519487  0.74907001    -0.78600
C458        C  0.26168158  0.56468089  0.78866601     0.82500
O459        O  0.21915983  0.61926324  0.63248715    -0.79700
O460        O  0.28944217  0.50031951  0.67535721    -0.81200
O461        O  0.16901088  0.95078472  0.71740396    -0.81000
O462        O  0.11437923  0.53127468  0.73362847    -0.79600
Zn463      Zn  0.19798838  0.58031763  0.72912575     1.55700
O464        O  0.23126025  0.95135509  0.73279585    -0.81000
Cd465      Cd  0.15756068  0.50645255  0.69814986     1.59700
Cd466      Cd  0.21790605  0.55714800  0.63706298     1.59600
O467        O  0.13775067  0.50000165  0.63971616    -0.81000
O468        O  0.20578878  0.53760000  0.69492049    -1.91500
Cd469      Cd  0.24855661  0.50725257  0.71978483     1.59900
O470        O  0.17611766  0.53348377  0.59754705    -0.80900
O471        O  0.27241293  0.53326627  0.77166118    -0.79600
C472        C  0.21346436  0.64092145  0.66354797     0.82900
C473        C  0.11567986  0.56479841  0.74981922     0.82600
O474        O  0.23333407  0.58377968  0.77547828    -0.78600
C475        C  0.19959359  0.93355837  0.72826812     0.83400
O476        O  0.20623855  0.62632740  0.69804887    -0.78600
C477        C  0.14754195  0.51105128  0.60412568     0.83500
C478        C  0.29462295  0.51127828  0.63857503     0.83900
O479        O  0.27146140  0.53400858  0.61994360    -0.81100
O480        O  0.23724364  0.74077523  0.77558093    -0.78600
C481        C  0.11606602  0.75990062  0.75175840     0.82500
O482        O  0.22028373  0.70554959  0.63334694    -0.79700
O483        O  0.14081609  0.82500778  0.63933510    -0.81200
O484        O  0.23139110  0.87365009  0.73450974    -0.81000
O485        O  0.27572063  0.79184568  0.77209628    -0.79600
Zn486      Zn  0.19925909  0.74419233  0.73104899     1.55700
O487        O  0.16940058  0.87346104  0.71783162    -0.81000
Cd488      Cd  0.24929755  0.81798513  0.72158308     1.59700
Cd489      Cd  0.21967835  0.76725209  0.63905671     1.59600
O490        O  0.28907448  0.82624193  0.67664862    -0.81000
O491        O  0.20681963  0.78685427  0.69675866    -1.91500
Cd492      Cd  0.15837927  0.81767423  0.69867912     1.59900
O493        O  0.27291882  0.79003972  0.62239388    -0.80900
O494        O  0.11438615  0.79246027  0.73342756    -0.79600
C495        C  0.21377050  0.68368855  0.66397553     0.82900
C496        C  0.26601870  0.75973034  0.78831354     0.82600
O497        O  0.14665930  0.74016560  0.75269559    -0.78600
C498        C  0.19971332  0.89111016  0.72887385     0.83400
O499        O  0.20644140  0.69806508  0.69867667    -0.78600
C500        C  0.29486070  0.81433670  0.64035535     0.83500
C501        C  0.15177035  0.81420396  0.60400934     0.83900
O502        O  0.17994998  0.79124236  0.59833016    -0.81100
C503        C  0.12737525  0.49253462  0.57014453     0.80100
N504        N  0.13218379  0.95368373  0.56570841    -0.78200
C505        C  0.11070656  0.93330455  0.53882130     0.82600
N506        N  0.08381651  0.95208258  0.01646914    -0.78100
C507        C  0.07789512  0.49078882  0.02118470     0.82700
N508        N  0.09925408  0.51110495  0.54881374    -0.79800
C509        C  0.08297797  0.83134144  0.02053367     0.80100
N510        N  0.10605184  0.81196944  0.54709024    -0.78200
C511        C  0.13241371  0.83210057  0.56926374     0.82600
N512        N  0.13475032  0.87133646  0.56554882    -0.78100
C513        C  0.11206337  0.89060917  0.53879565     0.82700
N514        N  0.08594789  0.87045721  0.01694768    -0.79800
O515        O  0.48331595  0.58245099  0.86420850    -0.78600
C516        C  0.36653632  0.56313096  0.88878406     0.82500
O517        O  0.46941355  0.61440206  0.00656873    -0.79700
O518        O  0.38660539  0.49832950  0.49748909    -0.81200
O519        O  0.48156561  0.94837916  0.90533636    -0.81000
O520        O  0.02178480  0.53124159  0.86590899    -0.79600
Zn521      Zn  0.44864729  0.57979877  0.91084361     1.55700
O522        O  0.41940040  0.94772246  0.92116918    -0.81000
Cd523      Cd  0.49884523  0.50463795  0.91789100     1.59700
Cd524      Cd  0.46815383  0.55300273  0.00104735     1.60000
O525        O  0.04064584  0.49772616  0.96199554    -0.81000
O526        O  0.45619218  0.53518208  0.94310555    -1.91500
Cd527      Cd  0.40789313  0.50390310  0.93929351     1.59900
O528        O  0.02175130  0.53001390  0.51792867    -0.80900
O529        O  0.36553403  0.52879419  0.90293284    -0.79600
C530        C  0.46475567  0.63847300  0.97733447     0.82900
C531        C  0.51111496  0.56321708  0.84999562     0.82600
O532        O  0.39619219  0.58403552  0.89128724    -0.78600
C533        C  0.45003585  0.93053013  0.91055399     0.83400
O534        O  0.45768234  0.62734398  0.94134874    -0.78600
C535        C  0.04555456  0.50825219  0.99902008     0.83500
C536        C  0.39650139  0.50902876  0.53322941     0.83900
O537        O  0.42595581  0.53012648  0.54009117    -0.81100
O538        O  0.42854842  0.83286084  0.52653991    -0.78600
C539        C  0.04942983  0.81307602  0.00208984     0.82500
O540        O  0.44493858  0.86484071  0.88627195    -0.79700
O541        O  0.02536304  0.74766873  0.89073321    -0.81200
O542        O  0.43481180  0.69830274  0.98846466    -0.81000
O543        O  0.39028971  0.78149387  0.52293580    -0.79600
Zn544      Zn  0.46632538  0.82934334  0.98206059     1.55700
O545        O  0.49630353  0.69788651  0.96976382    -0.81000
Cd546      Cd  0.41656758  0.75391138  0.97348392     1.59700
Cd547      Cd  0.44572281  0.80388799  0.89122873     1.59600
O548        O  0.37621051  0.74545927  0.92832193    -0.81000
O549        O  0.45889890  0.78523801  0.94867846    -1.91500
Cd550      Cd  0.00732384  0.75407281  0.95034369     1.59900
O551        O  0.39224324  0.78179387  0.87426114    -0.80900
O552        O  0.05109229  0.78009302  0.98459935    -0.79600
C553        C  0.45140628  0.88856474  0.91535185     0.82900
C554        C  0.39966465  0.81388901  0.53882597     0.82600
O555        O  0.01884893  0.83277265  0.50299674    -0.78600
C556        C  0.46625334  0.68057040  0.98216319     0.83400
O557        O  0.45933375  0.87714818  0.95105734    -0.78600
C558        C  0.37007205  0.75773696  0.89213541     0.83500
C559        C  0.51436874  0.75892249  0.85550530     0.83900
O560        O  0.48564250  0.78121324  0.85015898    -0.81100
C561        C  0.87534881  0.99177982  0.06724367     0.80100
N562        N  0.87924374  0.45300109  0.07293445    -0.78200
C563        C  0.85743447  0.43393717  0.10052961     0.82600
N564        N  0.83116584  0.45396089  0.12230645    -0.78100
C565        C  0.82620818  0.99265570  0.11644780     0.82700
N566        N  0.84789031  0.01170505  0.08816543    -0.79800
C567        C  0.82594336  0.33295740  0.11790715     0.80100
N568        N  0.83065748  0.37181301  0.12285783    -0.78200
C569        C  0.85741929  0.39129819  0.10122181     0.82600
N570        N  0.88004832  0.37147425  0.07510263    -0.78100
C571        C  0.87586937  0.33260956  0.06990503     0.82700
N572        N  0.84797083  0.31326405  0.09057340    -0.79800
C573        C  0.83813260  0.24010070  0.36970756     0.80100
N574        N  0.83158550  0.20167571  0.37566769    -0.78200
C575        C  0.80428170  0.18280984  0.35410089     0.82600
N576        N  0.78297510  0.20279906  0.32691929    -0.78100
C577        C  0.78890841  0.24123214  0.32051113     0.82700
N578        N  0.81734389  0.25998103  0.34122468    -0.79800
C579        C  0.78354928  0.08226462  0.32199895     0.80100
N580        N  0.81072445  0.06215466  0.34292946    -0.78200
C581        C  0.83333334  0.08129703  0.37011808     0.82600
N582        N  0.82964052  0.12018208  0.37505209    -0.78100
C583        C  0.80283169  0.14026433  0.35431528     0.82700
N584        N  0.77990962  0.12116961  0.32774213    -0.79800
C585        C  0.53266636  0.08165517  0.31707778     0.80100
N586        N  0.55992618  0.06235698  0.29551037    -0.78200
C587        C  0.58246342  0.08246563  0.26909307     0.82600
N588        N  0.57861903  0.12153428  0.26564986    -0.78100
C589        C  0.55160832  0.14077123  0.28705395     0.82700
N590        N  0.52878735  0.12067397  0.31271947    -0.79800
C591        C  0.58245012  0.24210789  0.27085249     0.80100
N592        N  0.57828781  0.20318156  0.26635711    -0.78200
C593        C  0.55176410  0.18337882  0.28796674     0.82600
N594        N  0.52994896  0.20264932  0.31538694    -0.78100
C595        C  0.53360056  0.24158042  0.32033506     0.82700
N596        N  0.56030564  0.26151838  0.29835987    -0.79800
O597        O  0.64572247  0.08519229  0.24906921    -0.78600
C598        C  0.76168202  0.06467991  0.28866580     0.82500
O599        O  0.71915941  0.11926293  0.13248730    -0.79700
O600        O  0.78944085  0.00031856  0.17535898    -0.81200
O601        O  0.66900991  0.45078338  0.21740247    -0.81000
O602        O  0.61437864  0.03127332  0.23362360    -0.79600
Zn603      Zn  0.69798847  0.08031627  0.22912575     1.55700
O604        O  0.73125862  0.45135395  0.23279713    -0.81000
Cd605      Cd  0.65756075  0.00645091  0.19814688     1.59700
Cd606      Cd  0.71790617  0.05714779  0.13706275     1.59600
O607        O  0.63775232  0.00000029  0.13971253    -0.81000
O608        O  0.70578843  0.03759896  0.19491994    -1.91500
Cd609      Cd  0.74855526  0.00725121  0.21978579     1.59900
O610        O  0.67611907  0.03348411  0.09754485    -0.80900
O611        O  0.77241226  0.03326465  0.27166157    -0.79600
C612        C  0.71346357  0.14092091  0.16354816     0.82900
C613        C  0.61567947  0.06479631  0.24981601     0.82600
O614        O  0.73333472  0.08377902  0.27547810    -0.78600
C615        C  0.69959213  0.43355721  0.22826850     0.83400
O616        O  0.70623782  0.12632657  0.19804898    -0.78600
C617        C  0.64754361  0.01105106  0.10412247     0.83500
C618        C  0.79462293  0.01127847  0.13857744     0.83900
O619        O  0.77146224  0.03400931  0.11994558    -0.81100
O620        O  0.73724484  0.24077447  0.27558158    -0.78600
C621        C  0.61606582  0.25989786  0.25175788     0.82500
O622        O  0.72028128  0.20554930  0.13334700    -0.79700
O623        O  0.64081383  0.32500815  0.13933646    -0.81200
O624        O  0.73138951  0.37364911  0.23451101    -0.81000
O625        O  0.77572124  0.29184529  0.27209621    -0.79600
Zn626      Zn  0.69925945  0.24419125  0.23104996     1.55700
O627        O  0.66939886  0.37345975  0.21783344    -0.81000
Cd628      Cd  0.74929620  0.31798458  0.22158375     1.59700
Cd629      Cd  0.71967558  0.26725189  0.13905678     1.59600
O630        O  0.78907154  0.32624232  0.17664831    -0.81000
O631        O  0.70681836  0.28685334  0.19675934    -1.91500
Cd632      Cd  0.65837795  0.31767316  0.19868008     1.59900
O633        O  0.77291524  0.29004061  0.12239334    -0.80900
O634        O  0.61438548  0.29245763  0.23342735    -0.79600
C635        C  0.71376958  0.18368803  0.16397587     0.82900
C636        C  0.76602006  0.25972977  0.28831361     0.82600
O637        O  0.64665948  0.24016347  0.25269589    -0.78600
C638        C  0.69971164  0.39110903  0.22887518     0.83400
O639        O  0.70644174  0.19806433  0.19867739    -0.78600
C640        C  0.79485710  0.31433768  0.14035474     0.83500
C641        C  0.65176717  0.31420417  0.10401044     0.83900
O642        O  0.67994636  0.29124211  0.09833083    -0.81100
C643        C  0.62737707  0.99253510  0.07014070     0.80100
N644        N  0.63218479  0.45368410  0.06570491    -0.78200
C645        C  0.61070640  0.43330489  0.03881895     0.82600
N646        N  0.58381693  0.45208205  0.51647096    -0.78100
C647        C  0.57789482  0.99078811  0.52118690     0.82700
N648        N  0.59925545  0.01110561  0.04881070    -0.79800
C649        C  0.58298210  0.33134052  0.52053186     0.80100
N650        N  0.60604718  0.31197021  0.04709247    -0.78200
C651        C  0.63241007  0.33210091  0.06926504     0.82600
N652        N  0.63474819  0.37133666  0.06554868    -0.78100
C653        C  0.61206173  0.39060941  0.03879496     0.82700
N654        N  0.58595056  0.37045656  0.51694727    -0.79800
O655        O  0.98331713  0.08244763  0.36420587    -0.78600
C656        C  0.86653970  0.06312922  0.38878094     0.82500
O657        O  0.96941446  0.11439991  0.50656690    -0.79700
O658        O  0.88660449  0.99833233  0.99749429    -0.81200
O659        O  0.98157139  0.44837722  0.40533760    -0.81000
O660        O  0.52178775  0.03123964  0.36590744    -0.79600
Zn661      Zn  0.94865023  0.07979681  0.41084186     1.55700
O662        O  0.91940480  0.44772007  0.42116438    -0.81000
Cd663      Cd  0.99884930  0.00463685  0.41789018     1.59700
Cd664      Cd  0.96815388  0.05300067  0.50104547     1.60000
O665        O  0.54064885  0.99772679  0.46199569    -0.81000
O666        O  0.95619483  0.03517991  0.44310337    -1.91500
Cd667      Cd  0.90789634  0.00390031  0.43928898     1.59900
O668        O  0.52175249  0.03001635  0.01792810    -0.80900
O669        O  0.86553804  0.02879142  0.40292710    -0.79600
C670        C  0.96475890  0.13847106  0.47733245     0.82900
C671        C  0.01111637  0.06321416  0.34999306     0.82600
O672        O  0.89619501  0.08403429  0.39128642    -0.78600
C673        C  0.95004137  0.43052793  0.41055251     0.83400
O674        O  0.95768697  0.12734232  0.44134628    -0.78600
C675        C  0.54555514  0.00825142  0.49902101     0.83500
C676        C  0.89650250  0.00903030  0.03323434     0.83900
O677        O  0.92595770  0.03012724  0.04009515    -0.81100
O678        O  0.92854460  0.33286184  0.02654000    -0.78600
C679        C  0.54943412  0.31307455  0.50208813     0.82500
O680        O  0.94494318  0.36483847  0.38627133    -0.79700
O681        O  0.52536511  0.24766524  0.39073185    -0.81200
O682        O  0.93481525  0.19830081  0.48846317    -0.81000
O683        O  0.89028538  0.28149535  0.02293519    -0.79600
Zn684      Zn  0.96632945  0.32934143  0.48206035     1.55700
O685        O  0.99630729  0.19788452  0.46976323    -0.81000
Cd686      Cd  0.91657107  0.25390973  0.47348366     1.59700
Cd687      Cd  0.94572578  0.30388605  0.39122878     1.59600
O688        O  0.87621341  0.24545813  0.42832148    -0.81000
O689        O  0.95890252  0.28523604  0.44867823    -1.91500
Cd690      Cd  0.50732740  0.25407062  0.45034256     1.59900
O691        O  0.89224578  0.28179335  0.37426112    -0.80900
O692        O  0.55109683  0.28009187  0.48459684    -0.79600
C693        C  0.95141177  0.38856262  0.41535086     0.82900
C694        C  0.89966064  0.31389018  0.03882569     0.82600
O695        O  0.51884492  0.33277486  0.00299717    -0.78600
C696        C  0.96625679  0.18056841  0.48216178     0.83400
O697        O  0.95933923  0.37714625  0.45105643    -0.78600
C698        C  0.87007465  0.25773624  0.39213512     0.83500
C699        C  0.01436975  0.25891871  0.35550422     0.83900
O700        O  0.98564393  0.28121009  0.35015865    -0.81100
C701        C  0.87534697  0.99177853  0.56723844     0.80100
N702        N  0.87924285  0.45300013  0.57293042    -0.78200
C703        C  0.85743475  0.43393655  0.60052678     0.82600
N704        N  0.83116621  0.45396037  0.62230392    -0.78100
C705        C  0.82620776  0.99265504  0.61644437     0.82700
N706        N  0.84788890  0.01170398  0.58816075    -0.79800
C707        C  0.82594714  0.33295631  0.61790784     0.80100
N708        N  0.83066019  0.37181214  0.62285729    -0.78200
C709        C  0.85742118  0.39129757  0.60122049     0.82600
N710        N  0.88005068  0.37147357  0.57510163    -0.78100
C711        C  0.87587298  0.33260857  0.56990527     0.82700
N712        N  0.84797508  0.31326280  0.59057449    -0.79800
C713        C  0.83812984  0.24010145  0.86970835     0.80100
N714        N  0.83158210  0.20167670  0.87566929    -0.78200
C715        C  0.80427809  0.18281083  0.85410281     0.82600
N716        N  0.78297191  0.20279993  0.82692067    -0.78100
C717        C  0.78890598  0.24123282  0.82051180     0.82700
N718        N  0.81734162  0.25998157  0.84122501    -0.79800
C719        C  0.78354758  0.08226560  0.82200008     0.80100
N720        N  0.81072241  0.06215584  0.84293130    -0.78200
C721        C  0.83332998  0.08129836  0.87012105     0.82600
N722        N  0.82963646  0.12018325  0.87505531    -0.78100
C723        C  0.80282800  0.14026533  0.85431767     0.82700
N724        N  0.77990706  0.12117040  0.82774358    -0.79800
C725        C  0.53266634  0.08165823  0.81708123     0.80100
N726        N  0.55992616  0.06235969  0.79551397    -0.78200
C727        C  0.58246411  0.08246820  0.76909709     0.82600
N728        N  0.57862016  0.12153692  0.76565406    -0.78100
C729        C  0.55160946  0.14077418  0.78705787     0.82700
N730        N  0.52878794  0.12067712  0.81272307    -0.79800
C731        C  0.58245030  0.24211101  0.77085402     0.80100
N732        N  0.57828833  0.20318452  0.76635964    -0.78200
C733        C  0.55176500  0.18338186  0.78796994     0.82600
N734        N  0.52994959  0.20265272  0.81538955    -0.78100
C735        C  0.53360054  0.24158399  0.82033667     0.82700
N736        N  0.56030550  0.26152191  0.79836098    -0.79800
O737        O  0.64572251  0.08519484  0.74907003    -0.78600
C738        C  0.76168166  0.06468088  0.78866601     0.82500
O739        O  0.71915964  0.11926325  0.63248713    -0.79700
O740        O  0.78944224  0.00031952  0.67535721    -0.81200
O741        O  0.66901095  0.45078472  0.71740396    -0.81000
O742        O  0.61437917  0.03127471  0.73362844    -0.79600
Zn743      Zn  0.69798846  0.08031763  0.72912575     1.55700
O744        O  0.73126033  0.45135510  0.73279585    -0.81000
Cd745      Cd  0.65756073  0.00645255  0.69814986     1.59700
Cd746      Cd  0.71790612  0.05714800  0.63706298     1.59600
O747        O  0.63775070  0.00000166  0.63971615    -0.81000
O748        O  0.70578876  0.03760001  0.69492049    -1.91500
Cd749      Cd  0.74855668  0.00725258  0.71978483     1.59900
O750        O  0.67611772  0.03348374  0.59754704    -0.80900
O751        O  0.77241301  0.03326627  0.77166117    -0.79600
C752        C  0.71346425  0.14092145  0.66354796     0.82900
C753        C  0.61567984  0.06479842  0.74981923     0.82600
O754        O  0.73333415  0.08377967  0.77547827    -0.78600
C755        C  0.69959367  0.43355838  0.72826812     0.83400
O756        O  0.70623858  0.12632741  0.69804889    -0.78600
C757        C  0.64754198  0.01105130  0.60412568     0.83500
C758        C  0.79462302  0.01127829  0.63857504     0.83900
O759        O  0.77146148  0.03400860  0.61994361    -0.81100
O760        O  0.73724366  0.24077524  0.77558091    -0.78600
C761        C  0.61606602  0.25990062  0.75175840     0.82500
O762        O  0.72028376  0.20554959  0.63334694    -0.79700
O763        O  0.64081613  0.32500779  0.63933512    -0.81200
O764        O  0.73139118  0.37365009  0.73450974    -0.81000
O765        O  0.77572066  0.29184568  0.77209628    -0.79600
Zn766      Zn  0.69925917  0.24419232  0.73104900     1.55700
O767        O  0.66940067  0.37346104  0.71783162    -0.81000
Cd768      Cd  0.74929762  0.31798512  0.72158308     1.59700
Cd769      Cd  0.71967842  0.26725209  0.63905671     1.59600
O770        O  0.78907450  0.32624193  0.67664862    -0.81000
O771        O  0.70681971  0.28685415  0.69675867    -1.91500
Cd772      Cd  0.65837935  0.31767422  0.69867913     1.59900
O773        O  0.77291883  0.29003971  0.62239389    -0.80900
O774        O  0.61438609  0.29246026  0.73342754    -0.79600
C775        C  0.71377044  0.18368856  0.66397552     0.82900
C776        C  0.76601869  0.25973034  0.78831355     0.82600
O777        O  0.64665935  0.24016566  0.75269559    -0.78600
C778        C  0.69971341  0.39111016  0.72887385     0.83400
O779        O  0.70644141  0.19806509  0.69867667    -0.78600
C780        C  0.79486066  0.31433673  0.64035534     0.83500
C781        C  0.65177036  0.31420394  0.60400934     0.83900
O782        O  0.67995001  0.29124237  0.59833018    -0.81100
C783        C  0.62737523  0.99253464  0.57014454     0.80100
N784        N  0.63218379  0.45368373  0.56570842    -0.78200
C785        C  0.61070653  0.43330454  0.53882131     0.82600
N786        N  0.58381641  0.45208257  0.01646917    -0.78100
C787        C  0.57789511  0.99078881  0.02118470     0.82700
N788        N  0.59925401  0.01110495  0.54881380    -0.79800
C789        C  0.58297790  0.33134144  0.02053371     0.80100
N790        N  0.60605187  0.31196942  0.54709022    -0.78200
C791        C  0.63241374  0.33210053  0.56926374     0.82600
N792        N  0.63475038  0.37133644  0.56554881    -0.78100
C793        C  0.61206344  0.39060913  0.53879565     0.82700
N794        N  0.58594790  0.37045721  0.01694763    -0.79800
O795        O  0.98331600  0.08245101  0.86420852    -0.78600
C796        C  0.86653640  0.06313097  0.88878406     0.82500
O797        O  0.96941359  0.11440207  0.00656872    -0.79700
O798        O  0.88660535  0.99832947  0.49748906    -0.81200
O799        O  0.98156569  0.44837916  0.90533635    -0.81000
O800        O  0.52178465  0.03124156  0.86590896    -0.79600
Zn801      Zn  0.94864737  0.07979878  0.91084361     1.55700
O802        O  0.91940048  0.44772246  0.92116918    -0.81000
Cd803      Cd  0.99884532  0.00463795  0.91789100     1.59700
Cd804      Cd  0.96815390  0.05300273  0.00104736     1.60000
O805        O  0.54064586  0.99772615  0.96199553    -0.81000
O806        O  0.95619227  0.03518209  0.94310556    -1.91500
Cd807      Cd  0.90789321  0.00390312  0.93929351     1.59900
O808        O  0.52175135  0.03001392  0.51792866    -0.80900
O809        O  0.86553412  0.02879421  0.90293284    -0.79600
C810        C  0.96475563  0.13847300  0.97733447     0.82900
C811        C  0.01111498  0.06321708  0.84999561     0.82600
O812        O  0.89619228  0.08403553  0.89128724    -0.78600
C813        C  0.95003593  0.43053013  0.91055399     0.83400
O814        O  0.95768236  0.12734398  0.94134873    -0.78600
C815        C  0.54555458  0.00825218  0.99902006     0.83500
C816        C  0.89650131  0.00902877  0.53322938     0.83900
O817        O  0.92595570  0.03012653  0.54009115    -0.81100
O818        O  0.92854833  0.33286084  0.52653988    -0.78600
C819        C  0.54942979  0.31307602  0.00208983     0.82500
O820        O  0.94493863  0.36484072  0.88627195    -0.79700
O821        O  0.52536303  0.24766875  0.89073322    -0.81200
O822        O  0.93481180  0.19830277  0.98846466    -0.81000
O823        O  0.89028961  0.28149388  0.52293578    -0.79600
Zn824      Zn  0.96632523  0.32934335  0.98206059     1.55700
O825        O  0.99630351  0.19788648  0.96976383    -0.81000
Cd826      Cd  0.91656764  0.25391139  0.97348392     1.59700
Cd827      Cd  0.94572264  0.30388800  0.89122874     1.59600
O828        O  0.87621054  0.24545927  0.92832193    -0.81000
O829        O  0.95889884  0.28523806  0.94867845    -1.91500
Cd830      Cd  0.50732368  0.25407281  0.95034369     1.59900
O831        O  0.89224318  0.28179386  0.87426111    -0.80900
O832        O  0.55109225  0.28009303  0.98459933    -0.79600
C833        C  0.95140636  0.38856475  0.91535184     0.82900
C834        C  0.89966457  0.31388900  0.53882597     0.82600
O835        O  0.51884888  0.33277267  0.50299677    -0.78600
C836        C  0.96625332  0.18057040  0.98216318     0.83400
O837        O  0.95933380  0.37714819  0.95105735    -0.78600
C838        C  0.87007200  0.25773697  0.89213542     0.83500
C839        C  0.01436876  0.25892248  0.85550538     0.83900
O840        O  0.98564252  0.28121327  0.85015913    -0.81100
C841        C  0.87534886  0.49177981  0.06724367     0.80100
N842        N  0.87924370  0.95300110  0.07293444    -0.78200
C843        C  0.85743446  0.93393717  0.10052959     0.82600
N844        N  0.83116580  0.95396088  0.12230645    -0.78100
C845        C  0.82620823  0.49265571  0.11644778     0.82700
N846        N  0.84789034  0.51170505  0.08816539    -0.79800
C847        C  0.82594340  0.83295741  0.11790717     0.80100
N848        N  0.83065756  0.87181299  0.12285791    -0.78200
C849        C  0.85741931  0.89129820  0.10122182     0.82600
N850        N  0.88004831  0.87147425  0.07510258    -0.78100
C851        C  0.87586937  0.83260957  0.06990499     0.82700
N852        N  0.84797082  0.81326406  0.09057336    -0.79800
C853        C  0.83813259  0.74010065  0.36970756     0.80100
N854        N  0.83158547  0.70167568  0.37566769    -0.78200
C855        C  0.80428166  0.68280980  0.35410088     0.82600
N856        N  0.78297507  0.70279904  0.32691929    -0.78100
C857        C  0.78890837  0.74123211  0.32051114     0.82700
N858        N  0.81734386  0.75998101  0.34122469    -0.79800
C859        C  0.78354927  0.58226463  0.32199895     0.80100
N860        N  0.81072443  0.56215464  0.34292948    -0.78200
C861        C  0.83333330  0.58129703  0.37011809     0.82600
N862        N  0.82964049  0.62018206  0.37505210    -0.78100
C863        C  0.80283165  0.64026431  0.35431529     0.82700
N864        N  0.77990959  0.62116959  0.32774213    -0.79800
C865        C  0.53266637  0.58165519  0.31707777     0.80100
N866        N  0.55992617  0.56235697  0.29551034    -0.78200
C867        C  0.58246343  0.58246562  0.26909306     0.82600
N868        N  0.57861916  0.62153427  0.26564993    -0.78100
C869        C  0.55160843  0.64077124  0.28705397     0.82700
N870        N  0.52878739  0.62067398  0.31271944    -0.79800
C871        C  0.58245013  0.74210789  0.27085248     0.80100
N872        N  0.57828776  0.70318158  0.26635697    -0.78200
C873        C  0.55176410  0.68337882  0.28796668     0.82600
N874        N  0.52994898  0.70264930  0.31538689    -0.78100
C875        C  0.53360053  0.74158041  0.32033499     0.82700
N876        N  0.56030566  0.76151836  0.29835986    -0.79800
O877        O  0.64572244  0.58519227  0.24906921    -0.78600
C878        C  0.76168211  0.56467990  0.28866577     0.82500
O879        O  0.71915941  0.61926293  0.13248730    -0.79700
O880        O  0.78944101  0.50031858  0.17535902    -0.81200
O881        O  0.66900997  0.95078339  0.21740244    -0.81000
O882        O  0.61437866  0.53127329  0.23362357    -0.79600
Zn883      Zn  0.69798843  0.58031627  0.22912575     1.55700
O884        O  0.73125867  0.95135395  0.23279716    -0.81000
Cd885      Cd  0.65756094  0.50645091  0.19814688     1.59700
Cd886      Cd  0.71790637  0.55714779  0.13706275     1.59600
O887        O  0.63775242  0.50000028  0.13971254    -0.81000
O888        O  0.70578849  0.53759899  0.19491992    -1.91500
Cd889      Cd  0.74855524  0.50725121  0.21978578     1.59900
O890        O  0.67611913  0.53348412  0.09754484    -0.80900
O891        O  0.77241243  0.53326467  0.27166152    -0.79600
C892        C  0.71346357  0.64092091  0.16354817     0.82900
C893        C  0.61567946  0.56479627  0.24981600     0.82600
O894        O  0.73333476  0.58377896  0.27547809    -0.78600
C895        C  0.69959216  0.93355721  0.22826849     0.83400
O896        O  0.70623779  0.62632656  0.19804898    -0.78600
C897        C  0.64754367  0.51105105  0.10412246     0.83500
C898        C  0.79462305  0.51127848  0.13857746     0.83900
O899        O  0.77146232  0.53400926  0.11994559    -0.81100
O900        O  0.73724479  0.74077445  0.27558158    -0.78600
C901        C  0.61606582  0.75989786  0.25175787     0.82500
O902        O  0.72028128  0.70554929  0.13334700    -0.79700
O903        O  0.64081379  0.82500815  0.13933646    -0.81200
O904        O  0.73138952  0.87364909  0.23451101    -0.81000
O905        O  0.77572120  0.79184527  0.27209622    -0.79600
Zn906      Zn  0.69925942  0.74419125  0.23104996     1.55700
O907        O  0.66939887  0.87345976  0.21783344    -0.81000
Cd908      Cd  0.74929618  0.81798458  0.22158376     1.59700
Cd909      Cd  0.71967556  0.76725188  0.13905677     1.59600
O910        O  0.78907151  0.82624234  0.17664830    -0.81000
O911        O  0.70681842  0.78685334  0.19675934    -1.91500
Cd912      Cd  0.65837793  0.81767315  0.19868008     1.59900
O913        O  0.77291533  0.79004055  0.12239334    -0.80900
O914        O  0.61438545  0.79245762  0.23342735    -0.79600
C915        C  0.71376963  0.68368802  0.16397588     0.82900
C916        C  0.76602002  0.75972977  0.28831361     0.82600
O917        O  0.64665947  0.74016348  0.25269588    -0.78600
C918        C  0.69971169  0.89110902  0.22887518     0.83400
O919        O  0.70644177  0.69806433  0.19867739    -0.78600
C920        C  0.79485712  0.81433768  0.14035474     0.83500
C921        C  0.65176715  0.81420417  0.10401045     0.83900
O922        O  0.67994633  0.79124211  0.09833084    -0.81100
C923        C  0.62737706  0.49253510  0.07014071     0.80100
N924        N  0.63218489  0.95368411  0.06570489    -0.78200
C925        C  0.61070647  0.93330489  0.03881893     0.82600
N926        N  0.58381694  0.95208206  0.51647094    -0.78100
C927        C  0.57789483  0.49078813  0.52118686     0.82700
N928        N  0.59925543  0.51110562  0.04881066    -0.79800
C929        C  0.58298209  0.83134054  0.52053185     0.80100
N930        N  0.60604727  0.81197019  0.04709240    -0.78200
C931        C  0.63241009  0.83210092  0.06926504     0.82600
N932        N  0.63474817  0.87133667  0.06554871    -0.78100
C933        C  0.61206173  0.89060942  0.03879499     0.82700
N934        N  0.58595055  0.87045659  0.51694729    -0.79800
O935        O  0.98331711  0.58244763  0.36420585    -0.78600
C936        C  0.86653966  0.56312921  0.38878094     0.82500
O937        O  0.96941442  0.61439991  0.50656690    -0.79700
O938        O  0.88660454  0.49833232  0.99749430    -0.81200
O939        O  0.98157135  0.94837722  0.40533761    -0.81000
O940        O  0.52178776  0.53123963  0.36590745    -0.79600
Zn941      Zn  0.94865019  0.57979681  0.41084186     1.55700
O942        O  0.91940477  0.94772007  0.42116438    -0.81000
Cd943      Cd  0.99884925  0.50463685  0.41789018     1.59700
Cd944      Cd  0.96815384  0.55300067  0.50104547     1.60000
O945        O  0.54064886  0.49772680  0.46199568    -0.81000
O946        O  0.95619479  0.53517990  0.44310336    -1.91500
Cd947      Cd  0.90789631  0.50390031  0.43928898     1.59900
O948        O  0.52175244  0.53001638  0.01792812    -0.80900
O949        O  0.86553800  0.52879141  0.40292710    -0.79600
C950        C  0.96475886  0.63847106  0.47733245     0.82900
C951        C  0.01111637  0.56321414  0.34999305     0.82600
O952        O  0.89619497  0.58403429  0.39128642    -0.78600
C953        C  0.95004134  0.93052793  0.41055251     0.83400
O954        O  0.95768693  0.62734231  0.44134628    -0.78600
C955        C  0.54555515  0.50825143  0.49902101     0.83500
C956        C  0.89650255  0.50903028  0.03323434     0.83900
O957        O  0.92595773  0.53012726  0.04009516    -0.81100
O958        O  0.92854470  0.83286185  0.02654006    -0.78600
C959        C  0.54943416  0.81307455  0.50208813     0.82500
O960        O  0.94494314  0.86483847  0.38627133    -0.79700
O961        O  0.52536510  0.74766524  0.39073176    -0.81200
O962        O  0.93481521  0.69830081  0.48846317    -0.81000
O963        O  0.89028551  0.78149534  0.02293521    -0.79600
Zn964      Zn  0.96632941  0.82934142  0.48206035     1.55700
O965        O  0.99630724  0.69788451  0.46976323    -0.81000
Cd966      Cd  0.91657103  0.75390973  0.47348366     1.59700
Cd967      Cd  0.94572574  0.80388605  0.39122877     1.59600
O968        O  0.87621341  0.74545812  0.42832148    -0.81000
O969        O  0.95890248  0.78523603  0.44867823    -1.91500
Cd970      Cd  0.50732761  0.75407061  0.45034256     1.59900
O971        O  0.89224578  0.78179334  0.37426112    -0.80900
O972        O  0.55109688  0.78009187  0.48459688    -0.79600
C973        C  0.95141173  0.88856262  0.41535086     0.82900
C974        C  0.89966074  0.81389018  0.03882570     0.82600
O975        O  0.51884500  0.83277485  0.00299718    -0.78600
C976        C  0.96625675  0.68056841  0.48216177     0.83400
O977        O  0.95933919  0.87714624  0.45105643    -0.78600
C978        C  0.87007467  0.75773621  0.39213510     0.83500
C979        C  0.01436969  0.75891871  0.35550418     0.83900
O980        O  0.98564388  0.78121010  0.35015860    -0.81100
C981        C  0.87534701  0.49177852  0.56723845     0.80100
N982        N  0.87924281  0.95300014  0.57293041    -0.78200
C983        C  0.85743473  0.93393655  0.60052676     0.82600
N984        N  0.83116618  0.95396036  0.62230391    -0.78100
C985        C  0.82620777  0.49265505  0.61644436     0.82700
N986        N  0.84788891  0.51170398  0.58816072    -0.79800
C987        C  0.82594723  0.83295627  0.61790788     0.80100
N988        N  0.83066021  0.87181212  0.62285725    -0.78200
C989        C  0.85742120  0.89129757  0.60122049     0.82600
N990        N  0.88005077  0.87147358  0.57510168    -0.78100
C991        C  0.87587304  0.83260858  0.56990529     0.82700
N992        N  0.84797520  0.81326279  0.59057455    -0.79800
C993        C  0.83812993  0.74010142  0.86970831     0.80100
N994        N  0.83158216  0.70167668  0.87566929    -0.78200
C995        C  0.80427816  0.68281082  0.85410279     0.82600
N996        N  0.78297194  0.70279995  0.82692069    -0.78100
C997        C  0.78890604  0.74123281  0.82051180     0.82700
N998        N  0.81734175  0.75998155  0.84122494    -0.79800
C999        C  0.78354753  0.58226560  0.82200008     0.80100
N1000       N  0.81072237  0.56215584  0.84293130    -0.78200
C1001       C  0.83332993  0.58129835  0.87012104     0.82600
N1002       N  0.82963643  0.62018323  0.87505532    -0.78100
C1003       C  0.80282798  0.64026532  0.85431766     0.82700
N1004       N  0.77990704  0.62117041  0.82774359    -0.79800
C1005       C  0.53266640  0.58165825  0.81708123     0.80100
N1006       N  0.55992616  0.56235968  0.79551391    -0.78200
C1007       C  0.58246414  0.58246818  0.76909707     0.82600
N1008       N  0.57862030  0.62153692  0.76565410    -0.78100
C1009       C  0.55160961  0.64077421  0.78705793     0.82700
N1010       N  0.52878808  0.62067713  0.81272312    -0.79800
C1011       C  0.58245030  0.74211104  0.77085402     0.80100
N1012       N  0.57828832  0.70318457  0.76635961    -0.78200
C1013       C  0.55176502  0.68338190  0.78796993     0.82600
N1014       N  0.52994960  0.70265277  0.81538952    -0.78100
C1015       C  0.53360058  0.74158404  0.82033668     0.82700
N1016       N  0.56030557  0.76152195  0.79836103    -0.79800
O1017       O  0.64572248  0.58519481  0.74907001    -0.78600
C1018       C  0.76168162  0.56468088  0.78866601     0.82500
O1019       O  0.71915965  0.61926324  0.63248712    -0.79700
O1020       O  0.78944221  0.50031951  0.67535721    -0.81200
O1021       O  0.66901092  0.95078472  0.71740396    -0.81000
O1022       O  0.61437914  0.53127469  0.73362844    -0.79600
Zn1023     Zn  0.69798842  0.58031763  0.72912575     1.55700
O1024       O  0.73126029  0.95135509  0.73279585    -0.81000
Cd1025     Cd  0.65756071  0.50645256  0.69814987     1.59700
Cd1026     Cd  0.71790608  0.55714800  0.63706297     1.59600
O1027       O  0.63775071  0.50000165  0.63971617    -0.81000
O1028       O  0.70578882  0.53760001  0.69492049    -1.91500
Cd1029     Cd  0.74855665  0.50725257  0.71978483     1.59900
O1030       O  0.67611768  0.53348375  0.59754703    -0.80900
O1031       O  0.77241297  0.53326627  0.77166118    -0.79600
C1032       C  0.71346434  0.64092145  0.66354798     0.82900
C1033       C  0.61567982  0.56479839  0.74981923     0.82600
O1034       O  0.73333411  0.58377967  0.77547828    -0.78600
C1035       C  0.69959364  0.93355837  0.72826812     0.83400
O1036       O  0.70623861  0.62632740  0.69804889    -0.78600
C1037       C  0.64754196  0.51105128  0.60412569     0.83500
C1038       C  0.79462299  0.51127828  0.63857503     0.83900
O1039       O  0.77146144  0.53400859  0.61994360    -0.81100
O1040       O  0.73724368  0.74077524  0.77558093    -0.78600
C1041       C  0.61606600  0.75990062  0.75175839     0.82500
O1042       O  0.72028377  0.70554959  0.63334694    -0.79700
O1043       O  0.64081609  0.82500779  0.63933511    -0.81200
O1044       O  0.73139114  0.87365009  0.73450974    -0.81000
O1045       O  0.77572067  0.79184568  0.77209628    -0.79600
Zn1046     Zn  0.69925913  0.74419233  0.73104899     1.55700
O1047       O  0.66940062  0.87346104  0.71783162    -0.81000
Cd1048     Cd  0.74929759  0.81798513  0.72158308     1.59700
Cd1049     Cd  0.71967838  0.76725209  0.63905671     1.59600
O1050       O  0.78907447  0.82624193  0.67664861    -0.81000
O1051       O  0.70681967  0.78685426  0.69675866    -1.91500
Cd1052     Cd  0.65837930  0.81767423  0.69867912     1.59900
O1053       O  0.77291882  0.79003971  0.62239388    -0.80900
O1054       O  0.61438606  0.79246026  0.73342753    -0.79600
C1055       C  0.71377053  0.68368855  0.66397553     0.82900
C1056       C  0.76601873  0.75973034  0.78831354     0.82600
O1057       O  0.64665932  0.74016565  0.75269558    -0.78600
C1058       C  0.69971337  0.89111016  0.72887385     0.83400
O1059       O  0.70644144  0.69806509  0.69867667    -0.78600
C1060       C  0.79486068  0.81433672  0.64035533     0.83500
C1061       C  0.65177033  0.81420394  0.60400934     0.83900
O1062       O  0.67994997  0.79124237  0.59833017    -0.81100
C1063       C  0.62737520  0.49253462  0.57014455     0.80100
N1064       N  0.63218383  0.95368376  0.56570838    -0.78200
C1065       C  0.61070660  0.93330456  0.53882129     0.82600
N1066       N  0.58381651  0.95208257  0.01646915    -0.78100
C1067       C  0.57789506  0.49078881  0.02118469     0.82700
N1068       N  0.59925407  0.51110496  0.54881374    -0.79800
C1069       C  0.58297794  0.83134144  0.02053370     0.80100
N1070       N  0.60605186  0.81196944  0.54709022    -0.78200
C1071       C  0.63241371  0.83210056  0.56926374     0.82600
N1072       N  0.63475036  0.87133645  0.56554882    -0.78100
C1073       C  0.61206341  0.89060916  0.53879564     0.82700
N1074       N  0.58594788  0.87045721  0.01694766    -0.79800
O1075       O  0.98331597  0.58245101  0.86420850    -0.78600
C1076       C  0.86653636  0.56313097  0.88878406     0.82500
O1077       O  0.96941360  0.61440206  0.00656873    -0.79700
O1078       O  0.88660541  0.49832946  0.49748908    -0.81200
O1079       O  0.98156567  0.94837917  0.90533635    -0.81000
O1080       O  0.52178482  0.53124160  0.86590900    -0.79600
Zn1081     Zn  0.94864733  0.57979877  0.91084361     1.55700
O1082       O  0.91940046  0.94772257  0.92116916    -0.81000
Cd1083     Cd  0.99884528  0.50463795  0.91789100     1.59700
Cd1084     Cd  0.96815386  0.55300273  0.00104736     1.60000
O1085       O  0.54064570  0.49772613  0.96199556    -0.81000
O1086       O  0.95619223  0.53518208  0.94310556    -1.91500
Cd1087     Cd  0.90789317  0.50390310  0.93929351     1.59900
O1088       O  0.52175132  0.53001391  0.51792866    -0.80900
O1089       O  0.86553407  0.52879420  0.90293284    -0.79600
C1090       C  0.96475572  0.63847300  0.97733447     0.82900
C1091       C  0.01111496  0.56321707  0.84999560     0.82600
O1092       O  0.89619223  0.58403552  0.89128724    -0.78600
C1093       C  0.95003589  0.93053018  0.91055399     0.83400
O1094       O  0.95768238  0.62734398  0.94134874    -0.78600
C1095       C  0.54555450  0.50825219  0.99902007     0.83500
C1096       C  0.89650136  0.50902875  0.53322939     0.83900
O1097       O  0.92595572  0.53012655  0.54009116    -0.81100
O1098       O  0.92854832  0.83286083  0.52653986    -0.78600
C1099       C  0.54942985  0.81307601  0.00208984     0.82500
O1100       O  0.94493861  0.86484073  0.88627196    -0.79700
O1101       O  0.52536307  0.74766875  0.89073321    -0.81200
O1102       O  0.93481184  0.69830274  0.98846466    -0.81000
O1103       O  0.89028957  0.78149388  0.52293578    -0.79600
Zn1104     Zn  0.96632520  0.82934334  0.98206059     1.55700
O1105       O  0.99630357  0.69788651  0.96976382    -0.81000
Cd1106     Cd  0.91656762  0.75391137  0.97348391     1.59700
Cd1107     Cd  0.94572284  0.80388799  0.89122873     1.59600
O1108       O  0.87621051  0.74545927  0.92832194    -0.81000
O1109       O  0.95889890  0.78523802  0.94867846    -1.91500
Cd1110     Cd  0.50732387  0.75407281  0.95034369     1.59900
O1111       O  0.89224324  0.78179387  0.87426114    -0.80900
O1112       O  0.55109233  0.78009302  0.98459935    -0.79600
C1113       C  0.95140628  0.88856477  0.91535185     0.82900
C1114       C  0.89966456  0.81388901  0.53882595     0.82600
O1115       O  0.51884893  0.83277270  0.50299674    -0.78600
C1116       C  0.96625338  0.68057040  0.98216319     0.83400
O1117       O  0.95933375  0.87714820  0.95105734    -0.78600
C1118       C  0.87007203  0.75773698  0.89213543     0.83500
C1119       C  0.01436872  0.75892248  0.85550530     0.83900
O1120       O  0.98564251  0.78121326  0.85015897    -0.81100
loop_ 
_geom_bond_atom_site_label_1 
_geom_bond_atom_site_label_2 
_geom_bond_distance 
_geom_bond_site_symmetry_2 
_ccdc_geom_bond_type 
C1            N6   1.365   1_565  A
C1          N282   1.357       .  A
C1          C116   1.463   1_565  S
N2            C3   1.353       .  A
N2          C281   1.357       .  A
C3            N4   1.353       .  A
C3            C9   1.470       .  S
N4          C285   1.359       .  A
C5            N6   1.365   1_565  A
C5          N284   1.359       .  A
C5           C58   1.469   1_565  S
C7            N8   1.359       .  A
C7           N12   1.362       .  A
C7           C80   1.461       .  S
N8            C9   1.352       .  A
C9           N10   1.351       .  A
N10          C11   1.358       .  A
C11          N12   1.362       .  A
C11         C134   1.465       .  S
C13          N14   1.358       .  A
C13          N18   1.366       .  A
C13         C138   1.467       .  S
N14          C15   1.353       .  A
C15          N16   1.349       .  A
C15          C23   1.468       .  S
N16          C17   1.357       .  A
C17          N18   1.365       .  A
C17          C76   1.468       .  S
C19          N20   1.361       .  A
C19          N24   1.360       .  A
C19          C38   1.463       .  S
N20          C21   1.360       .  A
C21          N22   1.356       .  A
C21          C96   1.453       .  S
N22          C23   1.348       .  A
C23          N24   1.352       .  A
C25          N26   1.361       .  A
C25          N30   1.360       .  A
C25         C671   1.461       .  S
N26          C27   1.360       .  A
C27          N28   1.358       .  A
C27          C53   1.456       .  S
N28          C29   1.351       .  A
C29          N30   1.350       .  A
C29          C33   1.469       .  S
C31          N32   1.358       .  A
C31          N36   1.364       .  A
C31          C61   1.466       .  S
N32          C33   1.352       .  A
C33          N34   1.353       .  A
N34          C35   1.358       .  A
C35          N36   1.365       .  A
C35         C699   1.461       .  S
O37          C53   1.264       .  A
O37         Zn43   1.948       .  S
C38          O54   1.266       .  A
C38          O51   1.274       .  A
O39          C52   1.277       .  A
O39         Cd46   2.147       .  S
O40          C58   1.275       .  A
O40         Cd49   2.054       .  S
O41          C55   1.274       .  A
O41        Cd325   2.059       .  S
O42          C53   1.272       .  A
O42         Cd45   2.089       .  S
Zn43         O54   1.959       .  S
Zn43         O56   1.906       .  S
Zn43         O48   1.870       .  S
O44          C55   1.274       .  A
O44        Cd329   2.064       .  S
Cd45         O47   2.045       .  S
Cd45        O321   2.059   1_545  S
Cd45         O48   2.001       .  S
Cd46         O50   2.113       .  S
Cd46         O59   2.112       .  S
Cd46         O48   2.054       .  S
O47          C57   1.273       .  A
O48         Cd49   1.998       .  S
Cd49         O51   2.092       .  S
Cd49        O324   2.064   1_545  S
O50          C57   1.282       .  A
C52          C75   1.475       .  S
C52          O56   1.262       .  A
C55          C78   1.464       .  S
C57          C83   1.462   1_545  S
C58          O59   1.281       .  A
O60          C76   1.269       .  A
O60         Zn66   1.974       .  S
C61          O77   1.268       .  A
C61          O74   1.274       .  A
O62          C75   1.275       .  A
O62         Cd69   2.135       .  S
O63          C81   1.274       .  A
O63         Cd72   2.052       .  S
O64          C78   1.274       .  A
O64         Cd68   2.063       .  S
O65          C76   1.274       .  A
O65         Cd68   2.097       .  S
Zn66         O77   1.976       .  S
Zn66         O79   1.927       .  S
Zn66         O71   1.869       .  S
O67          C78   1.274       .  A
O67         Cd72   2.059       .  S
Cd68         O70   2.045       .  S
Cd68         O71   2.003       .  S
Cd69         O73   2.093       .  S
Cd69         O82   2.094       .  S
Cd69         O71   2.056       .  S
O70          C80   1.273       .  A
O71         Cd72   2.001       .  S
Cd72         O74   2.102       .  S
O73          C80   1.278       .  A
C75          O79   1.265       .  A
C81          C91   1.460       .  S
C81          O82   1.278       .  A
C83          N88   1.365   1_565  A
C83         N364   1.358       .  A
N84          C85   1.352       .  A
N84         C363   1.358       .  A
C85         N226   1.355       .  A
C85          C93   1.473       .  S
N86         C225   1.355       .  A
N86         C367   1.359       .  A
C87         N366   1.359       .  A
C87         N228   1.365   1_565  A
C87         C115   1.472   1_565  S
N88         C227   1.365   1_545  A
C89          N94   1.358       .  A
C89         N230   1.360       .  A
C89         C119   1.461       .  S
N90          C91   1.362       .  A
N90         C229   1.360       .  A
C91          N92   1.361       .  A
N92          C93   1.355       .  A
C93         N234   1.351       .  A
N94         C233   1.351       .  A
O95         C111   1.266       .  A
O95        Zn101   1.952       .  S
C96         O112   1.265       .  A
C96         O109   1.272       .  A
O97         C110   1.277       .  A
O97        Cd104   2.125       .  S
O98         C116   1.274   1_566  A
O98        Cd247   2.055   1_565  S
O99         C113   1.274       .  A
O99        Cd383   2.072       .  S
O100        C671   1.275       .  A
O100       Cd663   2.093   1_455  S
Zn101       O112   1.947       .  S
Zn101       O114   1.944       .  S
Zn101       O106   1.884       .  S
O102        C113   1.273       .  A
O102       Cd387   2.065       .  S
Cd103       O379   2.072   1_545  S
Cd103       O660   2.093       .  S
Cd103       O665   2.067   1_545  S
Cd103       O106   2.004       .  S
Cd104       O808   2.108       .  S
Cd104       O257   2.106       .  S
Cd104       O106   2.036       .  S
O105        C115   1.276   1_565  A
O105       Cd663   2.067   1_465  S
O106       Cd107   2.007       .  S
Cd107       O109   2.084       .  S
Cd107       O238   2.055   1_545  S
Cd107       O382   2.065   1_545  S
O108        C255   1.281   1_554  A
O108       Cd804   2.108   1_455  S
C110        C136   1.461       .  S
C110        O114   1.263       .  A
C111        C585   1.461       .  S
C111        O660   1.275       .  A
C113        C133   1.456       .  S
C115        O248   1.281       .  A
C116        O117   1.280       .  A
O117       Cd244   2.106       .  S
O118        C134   1.269       .  A
O118       Zn264   1.971   1_554  S
C119        O132   1.274       .  A
C119        O275   1.267       .  A
O120        C133   1.275       .  A
O120       Cd127   2.108       .  S
O121        C699   1.275       .  A
O121       Cd130   2.063       .  S
O122        C136   1.275       .  A
O122       Cd126   2.079       .  S
O123        C134   1.274       .  A
O123       Cd266   2.091   1_554  S
Zn124       O137   1.951       .  S
Zn124       O258   1.971       .  S
Zn124       O835   1.963       .  S
Zn124       O129   1.890       .  S
O125        C136   1.275       .  A
O125       Cd690   2.075       .  S
Cd126       O128   2.063       .  S
Cd126       O263   2.091       .  S
Cd126       O129   2.004       .  S
Cd127       O131   2.093       .  S
Cd127       O140   2.091       .  S
Cd127       O129   2.039       .  S
O128        C138   1.276       .  A
O129       Cd690   2.006       .  S
Cd130       O132   2.097       .  S
Cd130       O685   2.075   1_455  S
Cd130       O689   2.006   1_455  S
O131        C138   1.277       .  A
C133        O137   1.264       .  A
O135        C259   1.267       .  A
O135       Zn824   1.963   1_454  S
C139        C595   1.461       .  S
C139        O140   1.277       .  A
C139        O681   1.275       .  A
C141        N422   1.357       .  A
C141        N146   1.365   1_565  A
C141        C256   1.463   1_565  S
N142        C421   1.357       .  A
N142        C143   1.353       .  A
C143        N144   1.353       .  A
C143        C149   1.470       .  S
N144        C425   1.359       .  A
C145        N424   1.359       .  A
C145        N146   1.365   1_565  A
C145        C198   1.469   1_565  S
C147        N148   1.359       .  A
C147        N152   1.362       .  A
C147        C220   1.461       .  S
N148        C149   1.352       .  A
C149        N150   1.351       .  A
N150        C151   1.358       .  A
C151        N152   1.362       .  A
C151        C274   1.465       .  S
C153        N154   1.358       .  A
C153        N158   1.366       .  A
C153        C278   1.467       .  S
N154        C155   1.353       .  A
C155        N156   1.349       .  A
C155        C163   1.468       .  S
N156        C157   1.357       .  A
C157        N158   1.365       .  A
C157        C216   1.468       .  S
C159        N160   1.361       .  A
C159        N164   1.360       .  A
C159        C178   1.463       .  S
N160        C161   1.360       .  A
C161        N162   1.356       .  A
C161        C236   1.453       .  S
N162        C163   1.348       .  A
C163        N164   1.352       .  A
C165        N166   1.361       .  A
C165        N170   1.360       .  A
C165        C811   1.461       .  S
N166        C167   1.360       .  A
C167        N168   1.358       .  A
C167        C193   1.456       .  S
N168        C169   1.351       .  A
C169        N170   1.350       .  A
C169        C173   1.469       .  S
C171        N172   1.358       .  A
C171        N176   1.364       .  A
C171        C201   1.466       .  S
N172        C173   1.352       .  A
C173        N174   1.353       .  A
N174        C175   1.358       .  A
C175        N176   1.365       .  A
C175        C839   1.461       .  S
O177        C193   1.264       .  A
O177       Zn183   1.948       .  S
C178        O194   1.266       .  A
C178        O191   1.274       .  A
O179        C192   1.277       .  A
O179       Cd186   2.147       .  S
O180        C198   1.275       .  A
O180       Cd189   2.054       .  S
O181        C195   1.274       .  A
O181       Cd465   2.059       .  S
O182        C193   1.272       .  A
O182       Cd185   2.089       .  S
Zn183       O194   1.959       .  S
Zn183       O196   1.906       .  S
Zn183       O188   1.870       .  S
O184        C195   1.274       .  A
O184       Cd469   2.064       .  S
Cd185       O461   2.059   1_545  S
Cd185       O187   2.045       .  S
Cd185       O188   2.001       .  S
Cd186       O190   2.113       .  S
Cd186       O199   2.112       .  S
Cd186       O188   2.054       .  S
O187        C197   1.273       .  A
O188       Cd189   1.998       .  S
Cd189       O464   2.064   1_545  S
Cd189       O191   2.092       .  S
O190        C197   1.282       .  A
C192        C215   1.475       .  S
C192        O196   1.262       .  A
C195        C218   1.464       .  S
C197        C223   1.462   1_545  S
C198        O199   1.281       .  A
O200        C216   1.269       .  A
O200       Zn206   1.974       .  S
C201        O217   1.268       .  A
C201        O214   1.274       .  A
O202        C215   1.275       .  A
O202       Cd209   2.135       .  S
O203        C221   1.274       .  A
O203       Cd212   2.052       .  S
O204        C218   1.274       .  A
O204       Cd208   2.063       .  S
O205        C216   1.274       .  A
O205       Cd208   2.097       .  S
Zn206       O217   1.976       .  S
Zn206       O219   1.927       .  S
Zn206       O211   1.869       .  S
O207        C218   1.274       .  A
O207       Cd212   2.059       .  S
Cd208       O210   2.045       .  S
Cd208       O211   2.003       .  S
Cd209       O213   2.093       .  S
Cd209       O222   2.094       .  S
Cd209       O211   2.056       .  S
O210        C220   1.273       .  A
O211       Cd212   2.001       .  S
Cd212       O214   2.102       .  S
O213        C220   1.278       .  A
C215        O219   1.265       .  A
C221        C231   1.460       .  S
C221        O222   1.278       .  A
C223        N504   1.358       .  A
C223        N228   1.365   1_565  A
N224        C503   1.358       .  A
N224        C225   1.352       .  A
C225        C233   1.473       .  S
N226        C507   1.359       .  A
C227        N506   1.359       .  A
C227        C255   1.472   1_564  S
C229        N234   1.358       .  A
C229        C259   1.461       .  S
N230        C231   1.362       .  A
C231        N232   1.361       .  A
N232        C233   1.355       .  A
O235        C251   1.266       .  A
O235       Zn241   1.952       .  S
C236        O252   1.265       .  A
C236        O249   1.272       .  A
O237        C250   1.277   1_554  A
O237       Cd244   2.125       .  S
O238        C256   1.274   1_565  A
O239        C253   1.274       .  A
O239       Cd523   2.072       .  S
O240        C811   1.275       .  A
O240       Cd803   2.093   1_455  S
Zn241       O252   1.947       .  S
Zn241       O254   1.944       .  S
Zn241       O246   1.884       .  S
O242        C253   1.273       .  A
O242       Cd527   2.065       .  S
Cd243       O519   2.072   1_545  S
Cd243       O800   2.093       .  S
Cd243       O805   2.067   1_545  S
Cd243       O246   2.004       .  S
Cd244       O668   2.108       .  S
Cd244       O246   2.036   1_554  S
O245        C255   1.276   1_565  A
O245       Cd803   2.067   1_465  S
O246       Cd247   2.007       .  S
Cd247       O522   2.065   1_545  S
Cd247       O249   2.084       .  S
O248       Cd664   2.108   1_455  S
C250        C276   1.461       .  S
C250        O254   1.263       .  A
C251        C725   1.461       .  S
C251        O800   1.275       .  A
C253        C273   1.456       .  S
C256        O257   1.280       .  A
O258        C274   1.269       .  A
C259        O272   1.274   1_554  A
O260        C273   1.275       .  A
O260       Cd267   2.108       .  S
O261        C839   1.275       .  A
O261       Cd270   2.063       .  S
O262        C276   1.275       .  A
O262       Cd266   2.079       .  S
O263        C274   1.274       .  A
Zn264       O695   1.963   1_556  S
Zn264       O277   1.951       .  S
Zn264       O269   1.890       .  S
O265        C276   1.275       .  A
O265       Cd830   2.075       .  S
Cd266       O268   2.063       .  S
Cd266       O269   2.004       .  S
Cd267       O271   2.093       .  S
Cd267       O280   2.091       .  S
Cd267       O269   2.039       .  S
O268        C278   1.276       .  A
O269       Cd830   2.006       .  S
Cd270       O825   2.075   1_455  S
Cd270       O272   2.097       .  S
Cd270       O829   2.006   1_455  S
O271        C278   1.277       .  A
C273        O277   1.264       .  A
O275       Zn684   1.963   1_455  S
C279        C735   1.461       .  S
C279        O821   1.275       .  A
C279        O280   1.277       .  A
C281        N286   1.365       .  A
C281        C396   1.463       .  S
N282        C283   1.353       .  A
C283        N284   1.353       .  A
C283        C289   1.470       .  S
C285        N286   1.365       .  A
C285        C338   1.469       .  S
C287        N288   1.359       .  A
C287        N292   1.362       .  A
C287        C360   1.461       .  S
N288        C289   1.352       .  A
C289        N290   1.351       .  A
N290        C291   1.358       .  A
C291        N292   1.362       .  A
C291        C414   1.465       .  S
C293        N294   1.358       .  A
C293        N298   1.366       .  A
C293        C418   1.467       .  S
N294        C295   1.353       .  A
C295        N296   1.349       .  A
C295        C303   1.468       .  S
N296        C297   1.357       .  A
C297        N298   1.365       .  A
C297        C356   1.468       .  S
C299        N300   1.361       .  A
C299        N304   1.360       .  A
C299        C318   1.463       .  S
N300        C301   1.360       .  A
C301        N302   1.356       .  A
C301        C376   1.453       .  S
N302        C303   1.348       .  A
C303        N304   1.352       .  A
C305        N306   1.361       .  A
C305        N310   1.360       .  A
C305        C951   1.461       .  S
N306        C307   1.360       .  A
C307        N308   1.358       .  A
C307        C333   1.456       .  S
N308        C309   1.351       .  A
C309        N310   1.350       .  A
C309        C313   1.469       .  S
C311        N312   1.358       .  A
C311        N316   1.364       .  A
C311        C341   1.466       .  S
N312        C313   1.352       .  A
C313        N314   1.353       .  A
N314        C315   1.358       .  A
C315        N316   1.365       .  A
C315        C979   1.461       .  S
O317        C333   1.264       .  A
O317       Zn323   1.948       .  S
C318        O334   1.266       .  A
C318        O331   1.274       .  A
O319        C332   1.277       .  A
O319       Cd326   2.147       .  S
O320        C338   1.275       .  A
O320       Cd329   2.054       .  S
O321        C335   1.274       .  A
O322        C333   1.272       .  A
O322       Cd325   2.089       .  S
Zn323       O334   1.959       .  S
Zn323       O336   1.906       .  S
Zn323       O328   1.870       .  S
O324        C335   1.274       .  A
Cd325       O327   2.045       .  S
Cd325       O328   2.001       .  S
Cd326       O330   2.113       .  S
Cd326       O339   2.112       .  S
Cd326       O328   2.054       .  S
O327        C337   1.273       .  A
O328       Cd329   1.998       .  S
Cd329       O331   2.092       .  S
O330        C337   1.282       .  A
C332        C355   1.475       .  S
C332        O336   1.262       .  A
C335        C358   1.464       .  S
C337        C363   1.462       .  S
C338        O339   1.281       .  A
O340        C356   1.269       .  A
O340       Zn346   1.974       .  S
C341        O357   1.268       .  A
C341        O354   1.274       .  A
O342        C355   1.275       .  A
O342       Cd349   2.135       .  S
O343        C361   1.274       .  A
O343       Cd352   2.052       .  S
O344        C358   1.274       .  A
O344       Cd348   2.063       .  S
O345        C356   1.274       .  A
O345       Cd348   2.097       .  S
Zn346       O357   1.976       .  S
Zn346       O359   1.927       .  S
Zn346       O351   1.869       .  S
O347        C358   1.274       .  A
O347       Cd352   2.059       .  S
Cd348       O350   2.045       .  S
Cd348       O351   2.003       .  S
Cd349       O353   2.093       .  S
Cd349       O362   2.094       .  S
Cd349       O351   2.056       .  S
O350        C360   1.273       .  A
O351       Cd352   2.001       .  S
Cd352       O354   2.102       .  S
O353        C360   1.278       .  A
C355        O359   1.265       .  A
C361        C371   1.460       .  S
C361        O362   1.278       .  A
C363        N368   1.365       .  A
N364        C365   1.352       .  A
C365        N506   1.355       .  A
C365        C373   1.473       .  S
N366        C505   1.355       .  A
C367        N508   1.365       .  A
C367        C395   1.472       .  S
N368        C507   1.365       .  A
C369        N510   1.360       .  A
C369        N374   1.358       .  A
C369        C399   1.461       .  S
N370        C509   1.360       .  A
N370        C371   1.362       .  A
C371        N372   1.361       .  A
N372        C373   1.355       .  A
C373        N514   1.351       .  A
N374        C513   1.351       .  A
O375        C391   1.266       .  A
O375       Zn381   1.952       .  S
C376        O392   1.265       .  A
C376        O389   1.272       .  A
O377        C390   1.277       .  A
O377       Cd384   2.125       .  S
O378        C396   1.274   1_556  A
O378       Cd527   2.055       .  S
O379        C393   1.274       .  A
O380        C951   1.275       .  A
O380       Cd943   2.093   1_455  S
Zn381       O392   1.947       .  S
Zn381       O394   1.944       .  S
Zn381       O386   1.884       .  S
O382        C393   1.273       .  A
Cd383       O940   2.093       .  S
Cd383       O945   2.067       .  S
Cd383       O386   2.004       .  S
Cd384      O1088   2.108       .  S
Cd384       O537   2.106       .  S
Cd384       O386   2.036       .  S
O385        C395   1.276       .  A
O385       Cd943   2.067   1_455  S
O386       Cd387   2.007       .  S
Cd387       O518   2.055       .  S
Cd387       O389   2.084       .  S
O388        C535   1.281   1_554  A
O388      Cd1084   2.108   1_455  S
C390        C416   1.461       .  S
C390        O394   1.263       .  A
C391        C865   1.461       .  S
C391        O940   1.275       .  A
C393        C413   1.456       .  S
C395        O528   1.281       .  A
C396        O397   1.280       .  A
O397       Cd524   2.106       .  S
O398        C414   1.269       .  A
O398       Zn544   1.971   1_554  S
C399        O555   1.267       .  A
C399        O412   1.274       .  A
O400        C413   1.275       .  A
O400       Cd407   2.108       .  S
O401        C979   1.275       .  A
O401       Cd410   2.063       .  S
O402        C416   1.275       .  A
O402       Cd406   2.079       .  S
O403        C414   1.274       .  A
O403       Cd546   2.091   1_554  S
Zn404       O538   1.971       .  S
Zn404      O1115   1.963       .  S
Zn404       O417   1.951       .  S
Zn404       O409   1.890       .  S
O405        C416   1.275       .  A
O405       Cd970   2.075       .  S
Cd406       O543   2.091       .  S
Cd406       O408   2.063       .  S
Cd406       O409   2.004       .  S
Cd407       O411   2.093       .  S
Cd407       O420   2.091       .  S
Cd407       O409   2.039       .  S
O408        C418   1.276       .  A
O409       Cd970   2.006       .  S
Cd410       O965   2.075   1_455  S
Cd410       O412   2.097       .  S
Cd410       O969   2.006   1_455  S
O411        C418   1.277       .  A
C413        O417   1.264       .  A
O415        C539   1.267       .  A
O415      Zn1104   1.963   1_454  S
C419        C875   1.461       .  S
C419        O961   1.275       .  A
C419        O420   1.277       .  A
C421        N426   1.365       .  A
C421        C536   1.463       .  S
N422        C423   1.353       .  A
C423        N424   1.353       .  A
C423        C429   1.470       .  S
C425        N426   1.365       .  A
C425        C478   1.469       .  S
C427        N428   1.359       .  A
C427        N432   1.362       .  A
C427        C500   1.461       .  S
N428        C429   1.352       .  A
C429        N430   1.351       .  A
N430        C431   1.358       .  A
C431        N432   1.362       .  A
C431        C554   1.465       .  S
C433        N434   1.358       .  A
C433        N438   1.366       .  A
C433        C558   1.467       .  S
N434        C435   1.353       .  A
C435        N436   1.349       .  A
C435        C443   1.468       .  S
N436        C437   1.357       .  A
C437        N438   1.365       .  A
C437        C496   1.468       .  S
C439        N440   1.361       .  A
C439        N444   1.360       .  A
C439        C458   1.463       .  S
N440        C441   1.360       .  A
C441        N442   1.356       .  A
C441        C516   1.453       .  S
N442        C443   1.348       .  A
C443        N444   1.352       .  A
C445        N446   1.361       .  A
C445        N450   1.360       .  A
C445       C1091   1.461       .  S
N446        C447   1.360       .  A
C447        N448   1.358       .  A
C447        C473   1.456       .  S
N448        C449   1.351       .  A
C449        N450   1.350       .  A
C449        C453   1.469       .  S
C451        N452   1.358       .  A
C451        N456   1.364       .  A
C451        C481   1.466       .  S
N452        C453   1.352       .  A
C453        N454   1.353       .  A
N454        C455   1.358       .  A
C455        N456   1.365       .  A
C455       C1119   1.461       .  S
O457        C473   1.264       .  A
O457       Zn463   1.948       .  S
C458        O474   1.266       .  A
C458        O471   1.274       .  A
O459        C472   1.277       .  A
O459       Cd466   2.147       .  S
O460        C478   1.275       .  A
O460       Cd469   2.054       .  S
O461        C475   1.274       .  A
O462        C473   1.272       .  A
O462       Cd465   2.089       .  S
Zn463       O474   1.959       .  S
Zn463       O476   1.906       .  S
Zn463       O468   1.870       .  S
O464        C475   1.274       .  A
Cd465       O467   2.045       .  S
Cd465       O468   2.001       .  S
Cd466       O470   2.113       .  S
Cd466       O479   2.112       .  S
Cd466       O468   2.054       .  S
O467        C477   1.273       .  A
O468       Cd469   1.998       .  S
Cd469       O471   2.092       .  S
O470        C477   1.282       .  A
C472        C495   1.475       .  S
C472        O476   1.262       .  A
C475        C498   1.464       .  S
C477        C503   1.462       .  S
C478        O479   1.281       .  A
O480        C496   1.269       .  A
O480       Zn486   1.974       .  S
C481        O497   1.268       .  A
C481        O494   1.274       .  A
O482        C495   1.275       .  A
O482       Cd489   2.135       .  S
O483        C501   1.274       .  A
O483       Cd492   2.052       .  S
O484        C498   1.274       .  A
O484       Cd488   2.063       .  S
O485        C496   1.274       .  A
O485       Cd488   2.097       .  S
Zn486       O497   1.976       .  S
Zn486       O499   1.927       .  S
Zn486       O491   1.869       .  S
O487        C498   1.274       .  A
O487       Cd492   2.059       .  S
Cd488       O490   2.045       .  S
Cd488       O491   2.003       .  S
Cd489       O493   2.093       .  S
Cd489       O502   2.094       .  S
Cd489       O491   2.056       .  S
O490        C500   1.273       .  A
O491       Cd492   2.001       .  S
Cd492       O494   2.102       .  S
O493        C500   1.278       .  A
C495        O499   1.265       .  A
C501        C511   1.460       .  S
C501        O502   1.278       .  A
C503        N508   1.365       .  A
N504        C505   1.352       .  A
C505        C513   1.473       .  S
C507        C535   1.472   1_554  S
C509        N514   1.358       .  A
C509        C539   1.461       .  S
N510        C511   1.362       .  A
C511        N512   1.361       .  A
N512        C513   1.355       .  A
O515        C531   1.266       .  A
O515       Zn521   1.952       .  S
C516        O532   1.265       .  A
C516        O529   1.272       .  A
O517        C530   1.277   1_554  A
O517       Cd524   2.125       .  S
O518        C536   1.274       .  A
O519        C533   1.274       .  A
O520       C1091   1.275       .  A
O520      Cd1083   2.093   1_455  S
Zn521       O532   1.947       .  S
Zn521       O534   1.944       .  S
Zn521       O526   1.884       .  S
O522        C533   1.273       .  A
Cd523      O1080   2.093       .  S
Cd523      O1085   2.067       .  S
Cd523       O526   2.004       .  S
Cd524       O948   2.108       .  S
Cd524       O526   2.036   1_554  S
O525        C535   1.276       .  A
O525      Cd1083   2.067   1_455  S
O526       Cd527   2.007       .  S
Cd527       O529   2.084       .  S
O528       Cd944   2.108   1_455  S
C530        C556   1.461       .  S
C530        O534   1.263       .  A
C531       C1005   1.461       .  S
C531       O1080   1.275       .  A
C533        C553   1.456       .  S
C536        O537   1.280       .  A
O538        C554   1.269       .  A
C539        O552   1.274   1_554  A
O540        C553   1.275       .  A
O540       Cd547   2.108       .  S
O541       C1119   1.275       .  A
O541       Cd550   2.063       .  S
O542        C556   1.275       .  A
O542       Cd546   2.079       .  S
O543        C554   1.274       .  A
Zn544       O975   1.963   1_556  S
Zn544       O557   1.951       .  S
Zn544       O549   1.890       .  S
O545        C556   1.275       .  A
O545      Cd1110   2.075       .  S
Cd546       O548   2.063       .  S
Cd546       O549   2.004       .  S
Cd547       O551   2.093       .  S
Cd547       O560   2.091       .  S
Cd547       O549   2.039       .  S
O548        C558   1.276       .  A
O549      Cd1110   2.006       .  S
Cd550      O1105   2.075   1_455  S
Cd550       O552   2.097       .  S
Cd550      O1109   2.006   1_455  S
O551        C558   1.277       .  A
C553        O557   1.264       .  A
O555       Zn964   1.963   1_455  S
C559       C1015   1.461       .  S
C559       O1101   1.275       .  A
C559        O560   1.277       .  A
C561        N842   1.357       .  A
C561        N566   1.365   1_565  A
C561        C676   1.463   1_565  S
N562        C841   1.357       .  A
N562        C563   1.353       .  A
C563        N564   1.353       .  A
C563        C569   1.470       .  S
N564        C845   1.359       .  A
C565        N844   1.359       .  A
C565        N566   1.365   1_565  A
C565        C618   1.469   1_565  S
C567        N568   1.359       .  A
C567        N572   1.362       .  A
C567        C640   1.461       .  S
N568        C569   1.352       .  A
C569        N570   1.351       .  A
N570        C571   1.358       .  A
C571        N572   1.362       .  A
C571        C694   1.465       .  S
C573        N574   1.358       .  A
C573        N578   1.366       .  A
C573        C698   1.467       .  S
N574        C575   1.353       .  A
C575        N576   1.349       .  A
C575        C583   1.468       .  S
N576        C577   1.357       .  A
C577        N578   1.365       .  A
C577        C636   1.468       .  S
C579        N580   1.361       .  A
C579        N584   1.360       .  A
C579        C598   1.463       .  S
N580        C581   1.360       .  A
C581        N582   1.356       .  A
C581        C656   1.453       .  S
N582        C583   1.348       .  A
C583        N584   1.352       .  A
C585        N586   1.361       .  A
C585        N590   1.360       .  A
N586        C587   1.360       .  A
C587        N588   1.358       .  A
C587        C613   1.456       .  S
N588        C589   1.351       .  A
C589        N590   1.350       .  A
C589        C593   1.469       .  S
C591        N592   1.358       .  A
C591        N596   1.364       .  A
C591        C621   1.466       .  S
N592        C593   1.352       .  A
C593        N594   1.353       .  A
N594        C595   1.358       .  A
C595        N596   1.365       .  A
O597        C613   1.264       .  A
O597       Zn603   1.948       .  S
C598        O614   1.266       .  A
C598        O611   1.274       .  A
O599        C612   1.277       .  A
O599       Cd606   2.147       .  S
O600        C618   1.275       .  A
O600       Cd609   2.054       .  S
O601        C615   1.274       .  A
O601       Cd885   2.059       .  S
O602        C613   1.272       .  A
O602       Cd605   2.089       .  S
Zn603       O614   1.959       .  S
Zn603       O616   1.906       .  S
Zn603       O608   1.870       .  S
O604        C615   1.274       .  A
O604       Cd889   2.064       .  S
Cd605       O881   2.059   1_545  S
Cd605       O607   2.045       .  S
Cd605       O608   2.001       .  S
Cd606       O610   2.113       .  S
Cd606       O619   2.112       .  S
Cd606       O608   2.054       .  S
O607        C617   1.273       .  A
O608       Cd609   1.998       .  S
Cd609       O884   2.064   1_545  S
Cd609       O611   2.092       .  S
O610        C617   1.282       .  A
C612        C635   1.475       .  S
C612        O616   1.262       .  A
C615        C638   1.464       .  S
C617        C643   1.462   1_545  S
C618        O619   1.281       .  A
O620        C636   1.269       .  A
O620       Zn626   1.974       .  S
C621        O637   1.268       .  A
C621        O634   1.274       .  A
O622        C635   1.275       .  A
O622       Cd629   2.135       .  S
O623        C641   1.274       .  A
O623       Cd632   2.052       .  S
O624        C638   1.274       .  A
O624       Cd628   2.063       .  S
O625        C636   1.274       .  A
O625       Cd628   2.097       .  S
Zn626       O637   1.976       .  S
Zn626       O639   1.927       .  S
Zn626       O631   1.869       .  S
O627        C638   1.274       .  A
O627       Cd632   2.059       .  S
Cd628       O630   2.045       .  S
Cd628       O631   2.003       .  S
Cd629       O633   2.093       .  S
Cd629       O642   2.094       .  S
Cd629       O631   2.056       .  S
O630        C640   1.273       .  A
O631       Cd632   2.001       .  S
Cd632       O634   2.102       .  S
O633        C640   1.278       .  A
C635        O639   1.265       .  A
C641        C651   1.460       .  S
C641        O642   1.278       .  A
C643        N924   1.358       .  A
C643        N648   1.365   1_565  A
N644        C923   1.358       .  A
N644        C645   1.352       .  A
C645        N786   1.355       .  A
C645        C653   1.473       .  S
N646        C785   1.355       .  A
N646        C927   1.359       .  A
C647        N926   1.359       .  A
C647        N788   1.365   1_565  A
C647        C675   1.472   1_565  S
N648        C787   1.365   1_545  A
C649        N790   1.360       .  A
C649        N654   1.358       .  A
C649        C679   1.461       .  S
N650        C789   1.360       .  A
N650        C651   1.362       .  A
C651        N652   1.361       .  A
N652        C653   1.355       .  A
C653        N794   1.351       .  A
N654        C793   1.351       .  A
O655        C671   1.266   1_655  A
O655       Zn661   1.952       .  S
C656        O672   1.265       .  A
C656        O669   1.272       .  A
O657        C670   1.277       .  A
O657       Cd664   2.125       .  S
O658        C676   1.274   1_566  A
O658       Cd807   2.055   1_565  S
O659        C673   1.274       .  A
O659       Cd943   2.072       .  S
Zn661       O672   1.947       .  S
Zn661       O674   1.944       .  S
Zn661       O666   1.884       .  S
O662        C673   1.273       .  A
O662       Cd947   2.065       .  S
Cd663       O939   2.072   1_545  S
Cd663       O666   2.004       .  S
Cd664       O817   2.106       .  S
Cd664       O666   2.036       .  S
O665        C675   1.276   1_565  A
O666       Cd667   2.007       .  S
Cd667       O798   2.055   1_545  S
Cd667       O942   2.065   1_545  S
Cd667       O669   2.084       .  S
O668        C815   1.281   1_554  A
C670        C696   1.461       .  S
C670        O674   1.263       .  A
C673        C693   1.456       .  S
C675        O808   1.281       .  A
C676        O677   1.280       .  A
O677       Cd804   2.106       .  S
O678        C694   1.269       .  A
O678       Zn824   1.971   1_554  S
C679        O835   1.267       .  A
C679        O692   1.274       .  A
O680        C693   1.275       .  A
O680       Cd687   2.108       .  S
O681       Cd690   2.063       .  S
O682        C696   1.275       .  A
O682       Cd686   2.079       .  S
O683        C694   1.274       .  A
O683       Cd826   2.091   1_554  S
Zn684       O818   1.971       .  S
Zn684       O697   1.951       .  S
Zn684       O689   1.890       .  S
O685        C696   1.275       .  A
Cd686       O823   2.091       .  S
Cd686       O688   2.063       .  S
Cd686       O689   2.004       .  S
Cd687       O691   2.093       .  S
Cd687       O700   2.091       .  S
Cd687       O689   2.039       .  S
O688        C698   1.276       .  A
Cd690       O692   2.097       .  S
O691        C698   1.277       .  A
C693        O697   1.264       .  A
O695        C819   1.267       .  A
C699        O700   1.277   1_455  A
C701        N982   1.357       .  A
C701        N706   1.365   1_565  A
C701        C816   1.463   1_565  S
N702        C981   1.357       .  A
N702        C703   1.353       .  A
C703        N704   1.353       .  A
C703        C709   1.470       .  S
N704        C985   1.359       .  A
C705        N984   1.359       .  A
C705        N706   1.365   1_565  A
C705        C758   1.469   1_565  S
C707        N708   1.359       .  A
C707        N712   1.362       .  A
C707        C780   1.461       .  S
N708        C709   1.352       .  A
C709        N710   1.351       .  A
N710        C711   1.358       .  A
C711        N712   1.362       .  A
C711        C834   1.465       .  S
C713        N714   1.358       .  A
C713        N718   1.366       .  A
C713        C838   1.467       .  S
N714        C715   1.353       .  A
C715        N716   1.349       .  A
C715        C723   1.468       .  S
N716        C717   1.357       .  A
C717        N718   1.365       .  A
C717        C776   1.468       .  S
C719        N720   1.361       .  A
C719        N724   1.360       .  A
C719        C738   1.463       .  S
N720        C721   1.360       .  A
C721        N722   1.356       .  A
C721        C796   1.453       .  S
N722        C723   1.348       .  A
C723        N724   1.352       .  A
C725        N726   1.361       .  A
C725        N730   1.360       .  A
N726        C727   1.360       .  A
C727        N728   1.358       .  A
C727        C753   1.456       .  S
N728        C729   1.351       .  A
C729        N730   1.350       .  A
C729        C733   1.469       .  S
C731        N732   1.358       .  A
C731        N736   1.364       .  A
C731        C761   1.466       .  S
N732        C733   1.352       .  A
C733        N734   1.353       .  A
N734        C735   1.358       .  A
C735        N736   1.365       .  A
O737        C753   1.264       .  A
O737       Zn743   1.948       .  S
C738        O754   1.266       .  A
C738        O751   1.274       .  A
O739        C752   1.277       .  A
O739       Cd746   2.147       .  S
O740        C758   1.275       .  A
O740       Cd749   2.054       .  S
O741        C755   1.274       .  A
O741      Cd1025   2.059       .  S
O742        C753   1.272       .  A
O742       Cd745   2.089       .  S
Zn743       O754   1.959       .  S
Zn743       O756   1.906       .  S
Zn743       O748   1.870       .  S
O744        C755   1.274       .  A
O744      Cd1029   2.064       .  S
Cd745      O1021   2.059   1_545  S
Cd745       O747   2.045       .  S
Cd745       O748   2.001       .  S
Cd746       O750   2.113       .  S
Cd746       O759   2.112       .  S
Cd746       O748   2.054       .  S
O747        C757   1.273       .  A
O748       Cd749   1.998       .  S
Cd749      O1024   2.064   1_545  S
Cd749       O751   2.092       .  S
O750        C757   1.282       .  A
C752        C775   1.475       .  S
C752        O756   1.262       .  A
C755        C778   1.464       .  S
C757        C783   1.462   1_545  S
C758        O759   1.281       .  A
O760        C776   1.269       .  A
O760       Zn766   1.974       .  S
C761        O777   1.268       .  A
C761        O774   1.274       .  A
O762        C775   1.275       .  A
O762       Cd769   2.135       .  S
O763        C781   1.274       .  A
O763       Cd772   2.052       .  S
O764        C778   1.274       .  A
O764       Cd768   2.063       .  S
O765        C776   1.274       .  A
O765       Cd768   2.097       .  S
Zn766       O777   1.976       .  S
Zn766       O779   1.927       .  S
Zn766       O771   1.869       .  S
O767        C778   1.274       .  A
O767       Cd772   2.059       .  S
Cd768       O770   2.045       .  S
Cd768       O771   2.003       .  S
Cd769       O773   2.093       .  S
Cd769       O782   2.094       .  S
Cd769       O771   2.056       .  S
O770        C780   1.273       .  A
O771       Cd772   2.001       .  S
Cd772       O774   2.102       .  S
O773        C780   1.278       .  A
C775        O779   1.265       .  A
C781        C791   1.460       .  S
C781        O782   1.278       .  A
C783       N1064   1.358       .  A
C783        N788   1.365   1_565  A
N784       C1063   1.358       .  A
N784        C785   1.352       .  A
C785        C793   1.473       .  S
N786       C1067   1.359       .  A
C787       N1066   1.359       .  A
C787        C815   1.472   1_564  S
C789        N794   1.358       .  A
C789        C819   1.461       .  S
N790        C791   1.362       .  A
C791        N792   1.361       .  A
N792        C793   1.355       .  A
O795        C811   1.266   1_655  A
O795       Zn801   1.952       .  S
C796        O812   1.265       .  A
C796        O809   1.272       .  A
O797        C810   1.277   1_554  A
O797       Cd804   2.125       .  S
O798        C816   1.274   1_565  A
O799        C813   1.274       .  A
O799      Cd1083   2.072       .  S
Zn801       O812   1.947       .  S
Zn801       O814   1.944       .  S
Zn801       O806   1.884       .  S
O802        C813   1.273       .  A
O802      Cd1087   2.065       .  S
Cd803      O1079   2.072   1_545  S
Cd803       O806   2.004       .  S
Cd804       O806   2.036   1_554  S
O805        C815   1.276   1_565  A
O806       Cd807   2.007       .  S
Cd807      O1082   2.065   1_545  S
Cd807       O809   2.084       .  S
C810        C836   1.461       .  S
C810        O814   1.263       .  A
C813        C833   1.456       .  S
C816        O817   1.280       .  A
O818        C834   1.269       .  A
C819        O832   1.274   1_554  A
O820        C833   1.275       .  A
O820       Cd827   2.108       .  S
O821       Cd830   2.063       .  S
O822        C836   1.275       .  A
O822       Cd826   2.079       .  S
O823        C834   1.274       .  A
Zn824       O837   1.951       .  S
Zn824       O829   1.890       .  S
O825        C836   1.275       .  A
Cd826       O828   2.063       .  S
Cd826       O829   2.004       .  S
Cd827       O831   2.093       .  S
Cd827       O840   2.091       .  S
Cd827       O829   2.039       .  S
O828        C838   1.276       .  A
Cd830       O832   2.097       .  S
O831        C838   1.277       .  A
C833        O837   1.264       .  A
C839        O840   1.277   1_455  A
C841        N846   1.365       .  A
C841        C956   1.463       .  S
N842        C843   1.353       .  A
C843        N844   1.353       .  A
C843        C849   1.470       .  S
C845        N846   1.365       .  A
C845        C898   1.469       .  S
C847        N848   1.359       .  A
C847        N852   1.362       .  A
C847        C920   1.461       .  S
N848        C849   1.352       .  A
C849        N850   1.351       .  A
N850        C851   1.358       .  A
C851        N852   1.362       .  A
C851        C974   1.465       .  S
C853        N854   1.358       .  A
C853        N858   1.366       .  A
C853        C978   1.467       .  S
N854        C855   1.353       .  A
C855        N856   1.349       .  A
C855        C863   1.468       .  S
N856        C857   1.357       .  A
C857        N858   1.365       .  A
C857        C916   1.468       .  S
C859        N860   1.361       .  A
C859        N864   1.360       .  A
C859        C878   1.463       .  S
N860        C861   1.360       .  A
C861        N862   1.356       .  A
C861        C936   1.453       .  S
N862        C863   1.348       .  A
C863        N864   1.352       .  A
C865        N866   1.361       .  A
C865        N870   1.360       .  A
N866        C867   1.360       .  A
C867        N868   1.358       .  A
C867        C893   1.456       .  S
N868        C869   1.351       .  A
C869        N870   1.350       .  A
C869        C873   1.469       .  S
C871        N872   1.358       .  A
C871        N876   1.364       .  A
C871        C901   1.466       .  S
N872        C873   1.352       .  A
C873        N874   1.353       .  A
N874        C875   1.358       .  A
C875        N876   1.365       .  A
O877        C893   1.264       .  A
O877       Zn883   1.948       .  S
C878        O894   1.266       .  A
C878        O891   1.274       .  A
O879        C892   1.277       .  A
O879       Cd886   2.147       .  S
O880        C898   1.275       .  A
O880       Cd889   2.054       .  S
O881        C895   1.274       .  A
O882        C893   1.272       .  A
O882       Cd885   2.089       .  S
Zn883       O894   1.959       .  S
Zn883       O896   1.906       .  S
Zn883       O888   1.870       .  S
O884        C895   1.274       .  A
Cd885       O887   2.045       .  S
Cd885       O888   2.001       .  S
Cd886       O890   2.113       .  S
Cd886       O899   2.112       .  S
Cd886       O888   2.054       .  S
O887        C897   1.273       .  A
O888       Cd889   1.998       .  S
Cd889       O891   2.092       .  S
O890        C897   1.282       .  A
C892        C915   1.475       .  S
C892        O896   1.262       .  A
C895        C918   1.464       .  S
C897        C923   1.462       .  S
C898        O899   1.281       .  A
O900        C916   1.269       .  A
O900       Zn906   1.974       .  S
C901        O917   1.268       .  A
C901        O914   1.274       .  A
O902        C915   1.275       .  A
O902       Cd909   2.135       .  S
O903        C921   1.274       .  A
O903       Cd912   2.052       .  S
O904        C918   1.274       .  A
O904       Cd908   2.063       .  S
O905        C916   1.274       .  A
O905       Cd908   2.097       .  S
Zn906       O917   1.976       .  S
Zn906       O919   1.927       .  S
Zn906       O911   1.869       .  S
O907        C918   1.274       .  A
O907       Cd912   2.059       .  S
Cd908       O910   2.045       .  S
Cd908       O911   2.003       .  S
Cd909       O913   2.093       .  S
Cd909       O922   2.094       .  S
Cd909       O911   2.056       .  S
O910        C920   1.273       .  A
O911       Cd912   2.001       .  S
Cd912       O914   2.102       .  S
O913        C920   1.278       .  A
C915        O919   1.265       .  A
C921        C931   1.460       .  S
C921        O922   1.278       .  A
C923        N928   1.365       .  A
N924        C925   1.352       .  A
C925       N1066   1.355       .  A
C925        C933   1.473       .  S
N926       C1065   1.355       .  A
C927       N1068   1.365       .  A
C927        C955   1.472       .  S
N928       C1067   1.365       .  A
C929       N1070   1.360       .  A
C929        N934   1.358       .  A
C929        C959   1.461       .  S
N930       C1069   1.360       .  A
N930        C931   1.362       .  A
C931        N932   1.361       .  A
N932        C933   1.355       .  A
C933       N1074   1.351       .  A
N934       C1073   1.351       .  A
O935        C951   1.266   1_655  A
O935       Zn941   1.952       .  S
C936        O952   1.265       .  A
C936        O949   1.272       .  A
O937        C950   1.277       .  A
O937       Cd944   2.125       .  S
O938        C956   1.274   1_556  A
O938      Cd1087   2.055       .  S
O939        C953   1.274       .  A
Zn941       O952   1.947       .  S
Zn941       O954   1.944       .  S
Zn941       O946   1.884       .  S
O942        C953   1.273       .  A
Cd943       O946   2.004       .  S
Cd944      O1097   2.106       .  S
Cd944       O946   2.036       .  S
O945        C955   1.276       .  A
O946       Cd947   2.007       .  S
Cd947      O1078   2.055       .  S
Cd947       O949   2.084       .  S
O948       C1095   1.281   1_554  A
C950        C976   1.461       .  S
C950        O954   1.263       .  A
C953        C973   1.456       .  S
C955       O1088   1.281       .  A
C956        O957   1.280       .  A
O957      Cd1084   2.106       .  S
O958        C974   1.269       .  A
O958      Zn1104   1.971   1_554  S
C959       O1115   1.267       .  A
C959        O972   1.274       .  A
O960        C973   1.275       .  A
O960       Cd967   2.108       .  S
O961       Cd970   2.063       .  S
O962        C976   1.275       .  A
O962       Cd966   2.079       .  S
O963        C974   1.274       .  A
O963      Cd1106   2.091   1_554  S
Zn964      O1098   1.971       .  S
Zn964       O977   1.951       .  S
Zn964       O969   1.890       .  S
O965        C976   1.275       .  A
Cd966      O1103   2.091       .  S
Cd966       O968   2.063       .  S
Cd966       O969   2.004       .  S
Cd967       O971   2.093       .  S
Cd967       O980   2.091       .  S
Cd967       O969   2.039       .  S
O968        C978   1.276       .  A
Cd970       O972   2.097       .  S
O971        C978   1.277       .  A
C973        O977   1.264       .  A
O975       C1099   1.267       .  A
C979        O980   1.277   1_455  A
C981        N986   1.365       .  A
C981       C1096   1.463       .  S
N982        C983   1.353       .  A
C983        N984   1.353       .  A
C983        C989   1.470       .  S
C985        N986   1.365       .  A
C985       C1038   1.469       .  S
C987        N988   1.359       .  A
C987        N992   1.362       .  A
C987       C1060   1.461       .  S
N988        C989   1.352       .  A
C989        N990   1.351       .  A
N990        C991   1.358       .  A
C991        N992   1.362       .  A
C991       C1114   1.465       .  S
C993        N994   1.358       .  A
C993        N998   1.366       .  A
C993       C1118   1.467       .  S
N994        C995   1.353       .  A
C995        N996   1.349       .  A
C995       C1003   1.468       .  S
N996        C997   1.357       .  A
C997        N998   1.365       .  A
C997       C1056   1.468       .  S
C999       N1000   1.361       .  A
C999       N1004   1.360       .  A
C999       C1018   1.463       .  S
N1000      C1001   1.360       .  A
C1001      N1002   1.356       .  A
C1001      C1076   1.453       .  S
N1002      C1003   1.348       .  A
C1003      N1004   1.352       .  A
C1005      N1006   1.361       .  A
C1005      N1010   1.360       .  A
N1006      C1007   1.360       .  A
C1007      N1008   1.358       .  A
C1007      C1033   1.456       .  S
N1008      C1009   1.351       .  A
C1009      N1010   1.350       .  A
C1009      C1013   1.469       .  S
C1011      N1012   1.358       .  A
C1011      N1016   1.364       .  A
C1011      C1041   1.466       .  S
N1012      C1013   1.352       .  A
C1013      N1014   1.353       .  A
N1014      C1015   1.358       .  A
C1015      N1016   1.365       .  A
O1017      C1033   1.264       .  A
O1017     Zn1023   1.948       .  S
C1018      O1034   1.266       .  A
C1018      O1031   1.274       .  A
O1019      C1032   1.277       .  A
O1019     Cd1026   2.147       .  S
O1020      C1038   1.275       .  A
O1020     Cd1029   2.054       .  S
O1021      C1035   1.274       .  A
O1022      C1033   1.272       .  A
O1022     Cd1025   2.089       .  S
Zn1023     O1034   1.959       .  S
Zn1023     O1036   1.906       .  S
Zn1023     O1028   1.870       .  S
O1024      C1035   1.274       .  A
Cd1025     O1027   2.045       .  S
Cd1025     O1028   2.001       .  S
Cd1026     O1030   2.113       .  S
Cd1026     O1039   2.112       .  S
Cd1026     O1028   2.054       .  S
O1027      C1037   1.273       .  A
O1028     Cd1029   1.998       .  S
Cd1029     O1031   2.092       .  S
O1030      C1037   1.282       .  A
C1032      C1055   1.475       .  S
C1032      O1036   1.262       .  A
C1035      C1058   1.464       .  S
C1037      C1063   1.462       .  S
C1038      O1039   1.281       .  A
O1040      C1056   1.269       .  A
O1040     Zn1046   1.974       .  S
C1041      O1057   1.268       .  A
C1041      O1054   1.274       .  A
O1042      C1055   1.275       .  A
O1042     Cd1049   2.135       .  S
O1043      C1061   1.274       .  A
O1043     Cd1052   2.052       .  S
O1044      C1058   1.274       .  A
O1044     Cd1048   2.063       .  S
O1045      C1056   1.274       .  A
O1045     Cd1048   2.097       .  S
Zn1046     O1057   1.976       .  S
Zn1046     O1059   1.927       .  S
Zn1046     O1051   1.869       .  S
O1047      C1058   1.274       .  A
O1047     Cd1052   2.059       .  S
Cd1048     O1050   2.045       .  S
Cd1048     O1051   2.003       .  S
Cd1049     O1053   2.093       .  S
Cd1049     O1062   2.094       .  S
Cd1049     O1051   2.056       .  S
O1050      C1060   1.273       .  A
O1051     Cd1052   2.001       .  S
Cd1052     O1054   2.102       .  S
O1053      C1060   1.278       .  A
C1055      O1059   1.265       .  A
C1061      C1071   1.460       .  S
C1061      O1062   1.278       .  A
C1063      N1068   1.365       .  A
N1064      C1065   1.352       .  A
C1065      C1073   1.473       .  S
C1067      C1095   1.472   1_554  S
C1069      N1074   1.358       .  A
C1069      C1099   1.461       .  S
N1070      C1071   1.362       .  A
C1071      N1072   1.361       .  A
N1072      C1073   1.355       .  A
O1075      C1091   1.266   1_655  A
O1075     Zn1081   1.952       .  S
C1076      O1092   1.265       .  A
C1076      O1089   1.272       .  A
O1077      C1090   1.277   1_554  A
O1077     Cd1084   2.125       .  S
O1078      C1096   1.274       .  A
O1079      C1093   1.274       .  A
Zn1081     O1092   1.947       .  S
Zn1081     O1094   1.944       .  S
Zn1081     O1086   1.884       .  S
O1082      C1093   1.273       .  A
Cd1083     O1086   2.004       .  S
Cd1084     O1086   2.036   1_554  S
O1085      C1095   1.276       .  A
O1086     Cd1087   2.007       .  S
Cd1087     O1089   2.084       .  S
C1090      C1116   1.461       .  S
C1090      O1094   1.263       .  A
C1093      C1113   1.456       .  S
C1096      O1097   1.280       .  A
O1098      C1114   1.269       .  A
C1099      O1112   1.274   1_554  A
O1100      C1113   1.275       .  A
O1100     Cd1107   2.108       .  S
O1101     Cd1110   2.063       .  S
O1102      C1116   1.275       .  A
O1102     Cd1106   2.079       .  S
O1103      C1114   1.274       .  A
Zn1104     O1117   1.951       .  S
Zn1104     O1109   1.890       .  S
O1105      C1116   1.275       .  A
Cd1106     O1108   2.063       .  S
Cd1106     O1109   2.004       .  S
Cd1107     O1111   2.093       .  S
Cd1107     O1120   2.091       .  S
Cd1107     O1109   2.039       .  S
O1108      C1118   1.276       .  A
Cd1110     O1112   2.097       .  S
O1111      C1118   1.277       .  A
C1113      O1117   1.264       .  A
C1119      O1120   1.277   1_455  A
