geometry optimzed in LAMMPS
_audit_creation_date              2020-11-30 
_audit_creation_method            'lammps2cif' 
_symmetry_space_group_name_H-M    'P1' 
_symmetry_Int_Tables_number       1 
_symmetry_cell_setting            triclinic 
loop_ 
_symmetry_equiv_pos_as_xyz 
  x,y,z 
_cell_length_a                    41.566246423719036 
_cell_length_b                    42.45052695781628 
_cell_length_c                    39.553939275130865 
_cell_angle_alpha                 90.72636858705418 
_cell_angle_beta                  90.80747468202773 
_cell_angle_gamma                 89.12787770896658 
loop_ 
_atom_site_label 
_atom_site_type_symbol 
_atom_site_fract_x 
_atom_site_fract_y 
_atom_site_fract_z 
_atom_site_charge 
O1          O  0.41505168  0.50488342  0.43438930    -0.74770
O2          O  0.40708012  0.05004834  0.46516308    -0.53680
C3          C  0.39869376  0.02982111  0.44221163     0.78960
O4          O  0.49004241  0.42146514  0.55869054    -0.59370
O5          O  0.03726597  0.41382816  0.53040571    -0.52400
C6          C  0.01484938  0.40490002  0.55026794     0.70970
O7          O  0.41634866  0.49835906  0.56439708    -0.73930
O8          O  0.40798216  0.04616325  0.53972575    -0.54500
C9          C  0.39998130  0.02388957  0.55971914     0.76970
O10         O  0.48716038  0.42653827  0.43296505    -0.59080
O11         O  0.03563663  0.41629933  0.45809449    -0.52200
C12         C  0.01182909  0.40870343  0.43831762     0.73570
Zr13       Zr  0.46529510  0.47783234  0.44791423     2.54710
O14         O  0.42169428  0.44061750  0.44091338    -0.79640
O15         O  0.47246416  0.48196249  0.38718874    -0.93060
Zr16       Zr  0.46598853  0.47276277  0.54729544     2.64680
O17         O  0.42274548  0.43472786  0.54380659    -0.98010
O18         O  0.46990522  0.46993733  0.60863744    -0.80070
O19         O  0.44285795  0.49695712  0.49895095    -0.83430
O20         O  0.48732306  0.45306375  0.49623329    -2.18140
O21         O  0.08172083  0.01506365  0.43555825    -0.66820
O22         O  0.09048068  0.46731509  0.45986817    -0.51390
C23         C  0.09863889  0.48986399  0.44030828     0.71950
O24         O  0.01222685  0.08854921  0.56356547    -0.59730
O25         O  0.46264448  0.09734067  0.54024335    -0.51710
C26         C  0.48697931  0.10574938  0.55869864     0.73750
O27         O  0.08113060  0.00804176  0.56554796    -0.71130
O28         O  0.09240338  0.46453804  0.53389707    -0.49800
C29         C  0.09957220  0.48483698  0.55734994     0.75130
O30         O  0.00836551  0.09264484  0.44237189    -0.66450
O31         O  0.46059886  0.09938769  0.46979148    -0.53650
C32         C  0.48308102  0.10873847  0.45035362     0.73520
Zr33       Zr  0.03198574  0.04083913  0.45229050     2.77540
O34         O  0.07389248  0.08036029  0.45376660    -0.97200
O35         O  0.02742987  0.04162010  0.39087420    -0.78020
Zr36       Zr  0.03234345  0.03593741  0.55146204     2.70070
O37         O  0.07645560  0.07252282  0.55905442    -0.79270
O38         O  0.02737233  0.03158713  0.61242640    -0.98360
Zr39       Zr  0.45422569  0.05182258  0.50276887     2.21500
Zr40       Zr  0.04412795  0.46139740  0.49689562     2.11130
O41         O  0.05499145  0.01662155  0.50064382    -2.47040
O42         O  0.01061198  0.06093144  0.50329654    -0.79060
O43         O  0.02150439  0.48619986  0.44762736    -0.71260
O44         O  0.47644720  0.02736764  0.55230493    -2.32220
O45         O  0.47586560  0.03231645  0.45059207    -2.28430
O46         O  0.02218972  0.48129478  0.54886200    -0.73020
H47         H  0.48260489  0.43095141  0.49496485     0.78980
H48         H  0.46735705  0.03635036  0.57266947     0.80060
H49         H  0.07787221  0.02025795  0.50115694     0.82290
H50         H  0.46617872  0.04300498  0.43149243     0.79900
H51         H  0.47497176  0.49162049  0.61619239     0.42930
H52         H  0.03154168  0.00899482  0.61693777     0.41900
H53         H  0.08038216  0.08043796  0.53606049     0.41580
H54         H  0.09114268  0.07142115  0.46843428     0.39510
H55         H  0.03555387  0.02065772  0.38339162     0.42650
H56         H  0.47311320  0.50483586  0.38285414     0.37430
H57         H  0.42196284  0.42859642  0.46220472     0.43550
H58         H  0.43039804  0.41824067  0.52779526     0.39960
H59         H  0.08298909  0.07981458  0.43075810     0.44880
H60         H  0.45173128  0.47510545  0.37718916     0.43600
H61         H  0.42309687  0.42437429  0.56610417     0.43740
H62         H  0.04667050  0.04223790  0.62167988     0.44100
C63         C  0.49529429  0.22689281  0.38169335     0.03650
C64         C  0.50057238  0.25655243  0.39716357    -0.12500
C65         C  0.50510555  0.28338247  0.37742618     0.01150
C66         C  0.50260918  0.28087078  0.34209471    -0.11030
C67         C  0.49601577  0.25192549  0.32632695     0.03640
C68         C  0.49356645  0.22494726  0.34610855    -0.10450
H69         H  0.50037584  0.25906241  0.42443605     0.09240
H70         H  0.50502525  0.30172372  0.32684066     0.06760
H71         H  0.48948925  0.20248007  0.33361219     0.06610
C72         C  0.21976079  0.00628664  0.37173200     0.03650
C73         C  0.24796601  0.01453036  0.38992725    -0.12500
C74         C  0.27560291  0.02428524  0.37268326     0.01150
C75         C  0.27424041  0.02601242  0.33720814    -0.11030
C76         C  0.24754244  0.01529952  0.31897473     0.03640
C77         C  0.22072172  0.00488711  0.33622504    -0.10450
H78         H  0.24826761  0.01371216  0.41726704     0.09240
H79         H  0.29444140  0.03494014  0.32340739     0.06760
H80         H  0.20010923  0.99657469  0.32180141     0.06610
C81         C  0.22271091  0.99773135  0.62767457     0.03650
C82         C  0.25154784  0.00281964  0.61059127    -0.12500
C83         C  0.27891130  0.01378267  0.62838537     0.01150
C84         C  0.27719924  0.01837433  0.66359265    -0.11030
C85         C  0.24907412  0.01198382  0.68103903     0.03640
C86         C  0.22189473  0.00170989  0.66299812    -0.10450
H87         H  0.25224730  0.99928621  0.58344892     0.09240
H88         H  0.29777827  0.02727278  0.67764645     0.06760
H89         H  0.19975503  0.99763094  0.67632038     0.06610
C90         C  0.49057031  0.23043622  0.62023558     0.03650
C91         C  0.49934114  0.25759257  0.60300439    -0.12500
C92         C  0.50106209  0.28703318  0.61994016     0.01150
C93         C  0.49403728  0.28827625  0.65484907    -0.11030
C94         C  0.48754522  0.26064512  0.67282375     0.03640
C95         C  0.48531190  0.23206464  0.65505405    -0.10450
H96         H  0.50519573  0.25543702  0.57648569     0.09240
H97         H  0.49366396  0.31060943  0.66830633     0.06760
H98         H  0.48029706  0.21063167  0.66849990     0.06610
C99         C  0.25035888  0.49525124  0.11846689     0.03650
C100        C  0.24427426  0.02381409  0.10207340    -0.12500
C101        C  0.24175893  0.05212567  0.12075643     0.01150
C102        C  0.24429965  0.05121153  0.15621276    -0.11030
C103        C  0.24802001  0.02235464  0.17299764     0.03640
C104        C  0.25168222  0.49452546  0.15378267    -0.10450
H105        H  0.24142123  0.02390316  0.07480110     0.09240
H106        H  0.24288580  0.07295411  0.17079241     0.06760
H107        H  0.25441006  0.47202846  0.16624526     0.06610
O108        O  0.22768693  0.35196581  0.93657199    -0.74770
O109        O  0.27409646  0.36153192  0.96585907    -0.53680
C110        C  0.25158620  0.36947214  0.94471358     0.78960
O111        O  0.15600268  0.27741793  0.06553104    -0.59370
O112        O  0.14882161  0.23034009  0.03860194    -0.52400
C113        C  0.14047586  0.25192827  0.06023769     0.70970
O114        O  0.22464621  0.35664346  0.05909298    -0.73930
O115        O  0.27382330  0.36273812  0.03557393    -0.54500
C116        C  0.24962185  0.37293323  0.05285689     0.76970
O117        O  0.15505579  0.27687085  0.93309998    -0.59080
O118        O  0.14718388  0.23132020  0.96165412    -0.52200
C119        C  0.13848691  0.25261929  0.94018250     0.73570
Zr120      Zr  0.20505992  0.30141025  0.94897083     2.54710
O121        O  0.16246374  0.34102508  0.94319899    -0.79640
O122        O  0.21090986  0.29591848  0.88799352    -0.93060
Zr123      Zr  0.20374431  0.30438151  0.04871973     2.64680
O124        O  0.15869626  0.34175808  0.04923852    -0.98010
O125        O  0.20975441  0.30584294  0.11005356    -0.80070
O126        O  0.22540838  0.32505327  0.99905560    -0.83430
O127        O  0.18202089  0.28155538  0.99862923    -2.18140
O128        O  0.25184164  0.18596050  0.93925578    -0.66820
O129        O  0.20319856  0.17908506  0.96423128    -0.51390
C130        C  0.22712591  0.16950934  0.94604802     0.71950
O131        O  0.32330803  0.26144718  0.06306444    -0.59730
O132        O  0.32976947  0.30895290  0.03760060    -0.51710
C133        C  0.33954677  0.28601526  0.05645551     0.73750
O134        O  0.24743569  0.18961711  0.06598505    -0.71130
O135        O  0.20105203  0.18061111  0.03582954    -0.49800
C136        C  0.22317102  0.17272323  0.05740890     0.75130
O137        O  0.32249474  0.26313488  0.93681082    -0.66450
O138        O  0.32870329  0.31007799  0.96500782    -0.53650
C139        C  0.33797486  0.28831481  0.94416488     0.73520
Zr140      Zr  0.27292768  0.23775463  0.95180095     2.77540
O141        O  0.31915442  0.20180048  0.95051746    -0.97200
O142        O  0.26733477  0.23898909  0.89047414    -0.78020
Zr143      Zr  0.27071923  0.23997343  0.05218237     2.70070
O144        O  0.31112492  0.19895572  0.06234757    -0.79270
O145        O  0.26445938  0.24963107  0.11253628    -0.98360
Zr146      Zr  0.28190820  0.31515611  0.00125890     2.21500
Zr147      Zr  0.19418434  0.22634677  0.99955620     2.11130
O148        O  0.25099950  0.21687047  0.00158337    -2.47040
O149        O  0.29371587  0.26005851  0.00251887    -0.79060
O150        O  0.21651119  0.24666264  0.94893013    -0.71260
O151        O  0.25993452  0.29489799  0.05205211    -2.32220
O152        O  0.26127848  0.29236299  0.94988659    -2.28430
O153        O  0.21466974  0.24953829  0.05077218    -0.73020
H154        H  0.15904053  0.28526920  0.99819029     0.78980
H155        H  0.26927802  0.30501500  0.07179739     0.80060
H156        H  0.25589184  0.19464112  0.00238079     0.82290
H157        H  0.27085516  0.30165768  0.93034604     0.79900
H158        H  0.22730230  0.32083294  0.11482791     0.42930
H159        H  0.24318255  0.24085930  0.11775576     0.41900
H160        H  0.31431906  0.18884580  0.03992199     0.41580
H161        H  0.31832100  0.19022572  0.97203549     0.39510
H162        H  0.24521764  0.23164097  0.88570685     0.42650
H163        H  0.22970143  0.30888189  0.88254887     0.37430
H164        H  0.16021611  0.35013216  0.96623295     0.43550
H165        H  0.14180006  0.33207277  0.03479608     0.39960
H166        H  0.31414551  0.18596712  0.93270384     0.44880
H167        H  0.19222123  0.30767198  0.87842105     0.43600
H168        H  0.15021710  0.34098512  0.07247271     0.43740
H169        H  0.28015258  0.23501102  0.12335308     0.44100
C170        C  0.45989699  0.26255344  0.12582194     0.03650
C171        C  0.45883823  0.25824856  0.16105773    -0.12500
C172        C  0.48717333  0.25201443  0.17996147     0.01150
C173        C  0.01656715  0.25041357  0.16298784    -0.11030
C174        C  0.01784370  0.25293346  0.12778297     0.03640
C175        C  0.48957548  0.25959128  0.10933708    -0.10450
H176        H  0.43586106  0.25953655  0.17361838     0.09240
H177        H  0.03879906  0.24709529  0.17718963     0.06760
H178        H  0.49080045  0.26299196  0.08228033     0.06610
C179        C  0.24427923  0.49121090  0.88072021     0.03650
C180        C  0.24578933  0.49078364  0.84538603    -0.12500
C181        C  0.24401174  0.01897169  0.82717562     0.01150
C182        C  0.23857606  0.04751063  0.84482486    -0.11030
C183        C  0.23581534  0.04789690  0.88014407     0.03640
C184        C  0.23957424  0.01977971  0.89807917    -0.10450
H185        H  0.24844202  0.46841501  0.83212940     0.09240
H186        H  0.23707657  0.06952066  0.83127185     0.06760
H187        H  0.23800547  0.02002748  0.92541738     0.06610
C188        C  0.45701284  0.27097423  0.87303134     0.03650
C189        C  0.48772739  0.27007465  0.88861692    -0.12500
C190        C  0.01484020  0.25914031  0.87095959     0.01150
C191        C  0.01151957  0.25130272  0.83662924    -0.11030
C192        C  0.48225921  0.25625461  0.81939687     0.03640
C193        C  0.45480219  0.26470732  0.83788958    -0.10450
H194        H  0.49074525  0.27791345  0.91457966     0.09240
H195        H  0.03224920  0.24285451  0.82268528     0.06760
H196        H  0.43198245  0.26678668  0.82457189     0.06610
C197        C  0.25693030  0.08845530  0.91874854    -0.11750
C198        C  0.23124010  0.07799045  0.89869233     0.05260
C199        C  0.20288403  0.09679352  0.89583286    -0.07040
C200        C  0.20143880  0.12604821  0.91307495    -0.07780
C201        C  0.22764706  0.13689902  0.93245068    -0.02330
C202        C  0.25574848  0.11763040  0.93550442     0.04480
N203        N  0.28336407  0.12716147  0.95528687     0.66990
H204        H  0.27843591  0.07380338  0.92093742     0.15890
H205        H  0.18011751  0.14089121  0.91061565     0.15600
N206        N  0.17566367  0.08682566  0.87563158     0.74700
O207        O  0.31119161  0.11752083  0.94741058    -0.38750
O208        O  0.27986363  0.14214606  0.98272444    -0.38700
O209        O  0.16939367  0.05796425  0.87200198    -0.39400
O210        O  0.15629107  0.10699968  0.86339609    -0.39470
C211        C  0.22161917  0.41258607  0.91590817    -0.11750
C212        C  0.25130990  0.40122163  0.92896974     0.05260
C213        C  0.27860230  0.42072684  0.92714015    -0.07040
C214        C  0.27527150  0.45071166  0.91259632    -0.07780
C215        C  0.24567458  0.46134245  0.89920588    -0.02330
C216        C  0.21841245  0.44217595  0.90100882     0.04480
N217        N  0.18743175  0.45211737  0.88773332     0.66990
H218        H  0.20023711  0.39847825  0.91770684     0.15890
H219        H  0.29624278  0.46537568  0.91040392     0.15600
N220        N  0.30996233  0.41023159  0.93824269     0.74700
O221        O  0.16747743  0.43190506  0.87738852    -0.38750
O222        O  0.17868524  0.48071010  0.88901268    -0.38700
O223        O  0.32118109  0.38412904  0.92785304    -0.39400
O224        O  0.32860930  0.42927956  0.95309342    -0.39470
C225        C  0.39314532  0.26225471  0.05895049    -0.11750
C226        C  0.37227240  0.28594058  0.07112961     0.05260
C227        C  0.38065338  0.30297011  0.10098435    -0.07040
C228        C  0.40992562  0.29525122  0.11766469    -0.07780
C229        C  0.42999120  0.27039751  0.10631392    -0.02330
C230        C  0.42130947  0.25364242  0.07654702     0.04480
N231        N  0.43905778  0.22614104  0.06550917     0.66990
H232        H  0.38598492  0.24846412  0.03690185     0.15890
H233        H  0.41680253  0.30809309  0.14040851     0.15600
N234        N  0.35975251  0.32695709  0.11554718     0.74700
O235        O  0.44788032  0.20561629  0.08665415    -0.38750
O236        O  0.44129544  0.21979533  0.03435831    -0.38700
O237        O  0.33060811  0.32971287  0.10653448    -0.39400
O238        O  0.37014479  0.34492732  0.13879279    -0.39470
C239        C  0.08623968  0.22798506  0.06930818    -0.11750
C240        C  0.11046623  0.24875425  0.08012703     0.05260
C241        C  0.10441690  0.26875030  0.10851395    -0.07040
C242        C  0.07384366  0.27006131  0.12253761    -0.07780
C243        C  0.04938955  0.25030395  0.11096585    -0.02330
C244        C  0.05593053  0.22803716  0.08491351     0.04480
N245        N  0.03276194  0.20467764  0.07511920     0.66990
H246        H  0.09094299  0.21154847  0.04875749     0.15890
H247        H  0.06932385  0.28624327  0.14342251     0.15600
N248        N  0.12935462  0.28682281  0.12457246     0.74700
O249        O  0.03198428  0.19392734  0.04523110    -0.38750
O250        O  0.01609862  0.19162727  0.09724457    -0.38700
O251        O  0.12377135  0.31489150  0.13396862    -0.39400
O252        O  0.15481097  0.27310861  0.13467189    -0.39470
C253        C  0.39558090  0.27666186  0.94434714    -0.11750
C254        C  0.36932140  0.29101372  0.92792067     0.05260
C255        C  0.37211506  0.30037061  0.89391181    -0.07040
C256        C  0.40165368  0.29535708  0.87757584    -0.07780
C257        C  0.42746620  0.27882223  0.89309235    -0.02330
C258        C  0.42398732  0.26931085  0.92715678     0.04480
N259        N  0.44750660  0.24972559  0.94391152     0.66990
H260        H  0.39281424  0.26821656  0.96990234     0.15890
H261        H  0.40411057  0.30390904  0.85211871     0.15600
N262        N  0.34514959  0.31344914  0.87507283     0.74700
O263        O  0.45630061  0.25622273  0.97383844    -0.38750
O264        O  0.45607820  0.22373699  0.93074820    -0.38700
O265        O  0.32136253  0.32582822  0.88994084    -0.39400
O266        O  0.34516168  0.31300360  0.84313895    -0.39470
C267        C  0.10482719  0.26302721  0.88941965    -0.11750
C268        C  0.10703542  0.25061227  0.92215883     0.05260
C269        C  0.07866538  0.24078648  0.93791126    -0.07040
C270        C  0.04913282  0.24286244  0.92029474    -0.07780
C271        C  0.04683786  0.25654634  0.88813985    -0.02330
C272        C  0.07516453  0.26728546  0.87285110     0.04480
N273        N  0.07411866  0.28469883  0.84191443     0.66990
H274        H  0.12628130  0.27144529  0.87739414     0.15890
H275        H  0.02754753  0.23494455  0.93243495     0.15600
N276        N  0.07880262  0.23161695  0.97263805     0.74700
O277        O  0.05412672  0.30713276  0.83828495    -0.38750
O278        O  0.09603465  0.28081834  0.82040894    -0.38700
O279        O  0.09083696  0.24968757  0.99484386    -0.39400
O280        O  0.06149789  0.20917597  0.98177100    -0.39470
C281        C  0.24659347  0.11984273  0.05918193    -0.11750
C282        C  0.22314683  0.14083286  0.07154997     0.05260
C283        C  0.20519271  0.13264030  0.10017211    -0.07040
C284        C  0.21164246  0.10334473  0.11550183    -0.07780
C285        C  0.23578006  0.08259517  0.10340934    -0.02330
C286        C  0.25351392  0.09116844  0.07482425     0.04480
N287        N  0.28005468  0.07230000  0.06269825     0.66990
H288        H  0.26128321  0.12683303  0.03838138     0.15890
H289        H  0.19773736  0.09660652  0.13713868     0.15600
N290        N  0.18149860  0.15380702  0.11471752     0.74700
O291        O  0.28519026  0.07009439  0.03136019    -0.38750
O292        O  0.30091657  0.06160469  0.08320484    -0.38700
O293        O  0.16786481  0.17491918  0.09721163    -0.39400
O294        O  0.17280072  0.15041282  0.14490199    -0.39470
C295        C  0.27953415  0.42027828  0.07382242    -0.11750
C296        C  0.25001432  0.40560866  0.06693572     0.05260
C297        C  0.22107925  0.42189537  0.07526736    -0.07040
C298        C  0.22236202  0.45121108  0.09151351    -0.07780
C299        C  0.25168138  0.46544836  0.09901334    -0.02330
C300        C  0.28090335  0.45018622  0.08972241     0.04480
N301        N  0.31186005  0.46416526  0.09642511     0.66990
H302        H  0.30169324  0.40807408  0.06726474     0.15890
H303        H  0.20008936  0.46317720  0.09830483     0.15600
N304        N  0.19007911  0.40956809  0.06662455     0.74700
O305        O  0.33724913  0.44750298  0.09503044    -0.38650
O306        O  0.31440540  0.49343721  0.10149141    -0.38700
O307        O  0.16822453  0.40938576  0.08847141    -0.39400
O308        O  0.18297180  0.40384078  0.03605254    -0.39470
C309        C  0.46063778  0.24343608  0.72587584    -0.11750
C310        C  0.48497700  0.26075654  0.71042430     0.05260
C311        C  0.00811039  0.27582528  0.73119172    -0.07040
C312        C  0.00552674  0.27468055  0.76628953    -0.07780
C313        C  0.48202093  0.25664126  0.78181231    -0.02330
C314        C  0.45948234  0.24024209  0.76129614     0.04480
N315        N  0.43674424  0.21902858  0.77555793     0.66990
H316        H  0.44322111  0.23119985  0.71011525     0.15890
H317        H  0.02314624  0.28697966  0.78171860     0.15600
N318        N  0.03619737  0.28958720  0.71731454     0.74700
O319        O  0.41081459  0.21299706  0.75994299    -0.38750
O320        O  0.44429290  0.20304765  0.80126391    -0.38700
O321        O  0.54669754  0.31513773  0.72949356    -0.39400
O322        O  0.05409955  0.27305369  0.69838953    -0.39470
C323        C  0.22500052  0.03613181  0.77018755    -0.11750
C324        C  0.24707761  0.01846565  0.78973183     0.05260
C325        C  0.27099878  0.50006124  0.77312209    -0.07040
C326        C  0.27080772  0.49832736  0.73769242    -0.07780
C327        C  0.24848651  0.01567458  0.71831292    -0.02330
C328        C  0.22602559  0.03569867  0.73474143     0.04480
N329        N  0.20537624  0.05681021  0.71599029     0.66990
H330        H  0.20700295  0.05070514  0.78263711     0.15890
H331        H  0.28860006  0.48365141  0.72501740     0.15600
N332        N  0.29622118  0.48392425  0.79157110     0.74700
O333        O  0.17790293  0.06427605  0.72701232    -0.38750
O334        O  0.21651942  0.07201292  0.69168239    -0.38700
O335        O  0.30734928  0.45793401  0.78068712    -0.39400
O336        O  0.31019801  0.49736993  0.81622430    -0.39470
C337        C  0.27054129  0.50199060  0.22729152    -0.11750
C338        C  0.24738924  0.02083432  0.21052955     0.05260
C339        C  0.22380106  0.03714008  0.22981370    -0.07040
C340        C  0.22457206  0.03478488  0.26511281    -0.07780
C341        C  0.24749245  0.01574146  0.28165920    -0.02330
C342        C  0.27053905  0.49862376  0.26255444     0.04480
N343        N  0.29329917  0.47714549  0.27821716     0.66990
H344        H  0.28849644  0.48933080  0.21264785     0.15890
H345        H  0.20677106  0.04758762  0.27986595     0.15600
N346        N  0.19823721  0.05514695  0.21415267     0.74700
O347        O  0.31949822  0.47035425  0.26387365    -0.38750
O348        O  0.28578593  0.46198496  0.30413340    -0.38700
O349        O  0.18238372  0.04365071  0.18961928    -0.39400
O350        O  0.18870158  0.08071532  0.22755447    -0.39470
C351        C  0.00962742  0.22866762  0.27029227    -0.11750
C352        C  0.49090437  0.25004001  0.28914031     0.05260
C353        C  0.46817388  0.26963770  0.27220320    -0.07040
C354        C  0.46716416  0.26945696  0.23666025    -0.07780
C355        C  0.48670764  0.24879757  0.21756218    -0.02330
C356        C  0.00714033  0.22705849  0.23490350     0.04480
N357        N  0.02496723  0.20282479  0.21722446     0.66990
H358        H  0.02622983  0.21290561  0.28332879     0.15890
H359        H  0.45104947  0.28578006  0.22382314     0.15600
N360        N  0.44546290  0.28906326  0.29055569     0.74700
O361        O  0.05256139  0.19438914  0.22774298    -0.38750
O362        O  0.01198157  0.18764398  0.19314606    -0.38700
O363        O  0.43379076  0.27954237  0.31783508    -0.39400
O364        O  0.43365213  0.31364073  0.27732721    -0.39470
C365        C  0.99773729  0.31926271  0.56705527    -0.11750
C366        C  0.50883506  0.31630044  0.60072861     0.05260
C367        C  0.02586517  0.34190248  0.61544901    -0.07040
C368        C  0.02859190  0.37014541  0.59775761    -0.07780
C369        C  0.01652228  0.37316058  0.56478404    -0.02330
C370        C  0.00180635  0.34702537  0.54870719     0.04480
N371        N  0.99030772  0.34812577  0.51421388     0.66990
H372        H  0.98436784  0.30037315  0.55513277     0.15890
H373        H  0.04035262  0.39001411  0.60987446     0.15600
N374        N  0.54200036  0.33927268  0.64748701     0.74700
O375        O  0.99121414  0.32356077  0.49588435    -0.38750
O376        O  0.47667626  0.37256622  0.50275493    -0.38700
O377        O  0.06373549  0.31851625  0.65125899    -0.39400
O378        O  0.53932697  0.36115416  0.66923554    -0.39470
C379        C  0.46627311  0.16154691  0.56280390    -0.11750
C380        C  0.48691693  0.13758480  0.57512242     0.05260
C381        C  0.00884608  0.14507736  0.60178593    -0.07040
C382        C  0.01002889  0.17575169  0.61469420    -0.07780
C383        C  0.48913686  0.19938431  0.60291598    -0.02330
C384        C  0.46670994  0.19232303  0.57669167     0.04480
N385        N  0.44377422  0.21549574  0.56456897     0.66990
H386        H  0.44944493  0.15620616  0.54245067     0.15890
H387        H  0.02689835  0.18101042  0.63508816     0.15600
N388        N  0.02917430  0.12166925  0.61732078     0.74700
O389        O  0.43270143  0.21355485  0.53473597    -0.38750
O390        O  0.43187018  0.23588414  0.58446594    -0.38700
O391        O  0.05882701  0.12672835  0.62151467    -0.39400
O392        O  0.01664779  0.09896109  0.63235222    -0.39470
C393        C  0.03581430  0.35446172  0.42827111    -0.11750
C394        C  0.01136326  0.37692229  0.42130003     0.05260
C395        C  0.48540537  0.36773750  0.39960217    -0.07040
C396        C  0.48424183  0.33713773  0.38651560    -0.07780
C397        C  0.50855393  0.31500796  0.39327152    -0.02330
C398        C  0.03504022  0.32372924  0.41410650     0.04480
N399        N  0.06161298  0.30230583  0.42026254     0.66990
H400        H  0.05587521  0.36095461  0.44453470     0.15890
H401        H  0.46405826  0.33062650  0.37034035     0.15600
N402        N  0.45991764  0.38901489  0.38996541     0.74700
O403        O  0.07853679  0.30500192  0.44687204    -0.38750
O404        O  0.07059059  0.28306329  0.39756903    -0.38700
O405        O  0.46557465  0.41091576  0.36970611    -0.39400
O406        O  0.43110787  0.38186980  0.39549171    -0.39470
C407        C  0.00299691  0.16275257  0.44864835    -0.11750
C408        C  0.48088805  0.14063985  0.43634003     0.05260
C409        C  0.46229025  0.14745921  0.40709925    -0.07040
C410        C  0.46657272  0.17640235  0.39100541    -0.07780
C411        C  0.49008353  0.19797017  0.40206657    -0.02330
C412        C  0.00839928  0.19090915  0.43158226     0.04480
N413        N  0.03431338  0.21046392  0.44309616     0.66990
H414        H  0.01800744  0.15691964  0.47039866     0.15890
H415        H  0.45167765  0.18184638  0.36911003     0.15600
N416        N  0.44060329  0.12483422  0.39214483     0.74700
O417        O  0.03862724  0.21548137  0.47435294    -0.38750
O418        O  0.05569986  0.21856133  0.42274026    -0.38700
O419        O  0.42619701  0.10536109  0.41017122    -0.39400
O420        O  0.43448706  0.12527872  0.36078488    -0.39470
C421        C  0.13797009  0.01155464  0.59609212    -0.11750
C422        C  0.13138502  0.48456763  0.57596600     0.05260
C423        C  0.15590519  0.46098428  0.57320381    -0.07040
C424        C  0.18617623  0.46601879  0.58925461    -0.07780
C425        C  0.19205421  0.99340333  0.60868174    -0.02330
C426        C  0.16759220  0.01637256  0.61177867     0.04480
N427        N  0.17282953  0.04555866  0.62967741     0.66990
H428        H  0.12033899  0.03039713  0.59890938     0.15890
H429        H  0.20485893  0.44801352  0.58763740     0.15600
N430        N  0.15038800  0.43153458  0.55591808     0.74700
O431        O  0.19710599  0.06183299  0.62323961    -0.38750
O432        O  0.15105491  0.05724447  0.64814760    -0.38700
O433        O  0.12483340  0.41671558  0.56095571    -0.39400
O434        O  0.17334186  0.41741230  0.54127793    -0.39470
C435        C  0.34140800  0.03800868  0.56369394    -0.11750
C436        C  0.36983005  0.02662649  0.57913690     0.05260
C437        C  0.36836190  0.01359421  0.61182079    -0.07040
C438        C  0.33848624  0.00923634  0.62663764    -0.07780
C439        C  0.30982432  0.01973739  0.61104948    -0.02330
C440        C  0.31151899  0.03549159  0.57976319     0.04480
N441        N  0.28341574  0.04950593  0.56438041     0.66990
H442        H  0.34238771  0.04851055  0.53890541     0.15890
H443        H  0.33773911  0.99761674  0.65082865     0.15600
N444        N  0.39708167  0.00523512  0.63055044     0.74700
O445        O  0.26466156  0.06672871  0.58165478    -0.38750
O446        O  0.27840024  0.04644063  0.53300303    -0.38700
O447        O  0.42071631  0.02357807  0.63117533    -0.39400
O448        O  0.39736914  0.48185291  0.64997579    -0.39470
C449        C  0.13040392  0.00566709  0.39133490    -0.11750
C450        C  0.12947861  0.48842665  0.42141712     0.05260
C451        C  0.15875856  0.47598037  0.43475548    -0.07040
C452        C  0.18791010  0.48194317  0.41825244    -0.07780
C453        C  0.18869463  0.00049997  0.38903152    -0.02330
C454        C  0.15933718  0.01298276  0.37596109     0.04480
N455        N  0.15848158  0.03517994  0.34877492     0.66990
H456        H  0.10836998  0.01577918  0.38090105     0.15890
H457        H  0.21011579  0.47200064  0.42840848     0.15600
N458        N  0.15978633  0.45871820  0.46566204     0.74700
O459        O  0.13632026  0.03405424  0.32664770    -0.38750
O460        O  0.17706128  0.05844564  0.34942526    -0.38700
O461        O  0.14441373  0.43343461  0.46785394    -0.39400
O462        O  0.18071450  0.46524503  0.48799938    -0.39470
C463        C  0.34052514  0.04709251  0.43843871    -0.11750
C464        C  0.36811022  0.03437771  0.42288666     0.05260
C465        C  0.36541815  0.02233125  0.38952910    -0.07040
C466        C  0.33503822  0.01855354  0.37482575    -0.07780
C467        C  0.30702020  0.03014197  0.39043966    -0.02330
C468        C  0.31011606  0.04643645  0.42189560     0.04480
N469        N  0.28337542  0.06341073  0.43652816     0.66990
H470        H  0.34271550  0.05753394  0.46348021     0.15890
H471        H  0.33349549  0.00667238  0.35049140     0.15600
N472        N  0.39341644  0.01483821  0.36984409     0.74700
O473        O  0.28291123  0.06896892  0.46792329    -0.38750
O474        O  0.26292156  0.07718651  0.41775756    -0.38700
O475        O  0.39269430  0.49287384  0.34802690    -0.39400
O476        O  0.41693767  0.03332434  0.37036586    -0.39470
O477        O  0.41505171  0.00488343  0.43438965    -0.74770
O478        O  0.40708005  0.55004832  0.46516275    -0.53680
C479        C  0.39869371  0.52982109  0.44221128     0.78960
O480        O  0.49004240  0.92146508  0.55869074    -0.59370
O481        O  0.03726591  0.91382813  0.53040597    -0.52400
C482        C  0.01484929  0.90489998  0.55026815     0.70970
O483        O  0.41634867  0.99835903  0.56439726    -0.73930
O484        O  0.40798212  0.54616327  0.53972554    -0.54500
C485        C  0.39998128  0.52388960  0.55971895     0.76970
O486        O  0.48716043  0.92653828  0.43296526    -0.59080
O487        O  0.03563664  0.91629935  0.45809478    -0.52200
C488        C  0.01182912  0.90870346  0.43831787     0.73570
Zr489      Zr  0.46529514  0.97783234  0.44791448     2.54710
O490        O  0.42169434  0.94061748  0.44091358    -0.79640
O491        O  0.47246416  0.98196254  0.38718899    -0.93060
Zr492      Zr  0.46598856  0.97276274  0.54729569     2.64680
O493        O  0.42274550  0.93472785  0.54380684    -0.98010
O494        O  0.46990525  0.96993730  0.60863768    -0.80070
O495        O  0.44285800  0.99695711  0.49895120    -0.83430
O496        O  0.48732310  0.95306373  0.49623354    -2.18140
O497        O  0.08172084  0.51506373  0.43555790    -0.66820
O498        O  0.09048066  0.96731502  0.45986855    -0.51390
C499        C  0.09863887  0.98986391  0.44030866     0.71950
O500        O  0.01222686  0.58854918  0.56356531    -0.59730
O501        O  0.46264443  0.59734067  0.54024314    -0.51710
C502        C  0.48697923  0.60574937  0.55869849     0.73750
O503        O  0.08113062  0.50804169  0.56554761    -0.71130
O504        O  0.09240335  0.96453807  0.53389747    -0.49800
C505        C  0.09957217  0.98483702  0.55735034     0.75130
O506        O  0.00836550  0.59264487  0.44237171    -0.66450
O507        O  0.46059881  0.59938773  0.46979127    -0.53650
C508        C  0.48308099  0.60873851  0.45035344     0.73520
Zr509      Zr  0.03198573  0.54083915  0.45229024     2.77540
O510        O  0.07389246  0.58036031  0.45376635    -0.97200
O511        O  0.02742980  0.54162017  0.39087393    -0.78020
Zr512      Zr  0.03234349  0.53593739  0.55146178     2.70070
O513        O  0.07645562  0.57252281  0.55905416    -0.79270
O514        O  0.02737242  0.53158704  0.61242613    -0.98360
Zr515      Zr  0.45422562  0.55182259  0.50276861     2.21500
Zr516      Zr  0.04412792  0.96139739  0.49689595     2.11130
O517        O  0.05499146  0.51662156  0.50064353    -2.47040
O518        O  0.01061198  0.56093143  0.50329629    -0.79060
O519        O  0.02150440  0.98619984  0.44762767    -0.71260
O520        O  0.47644716  0.52736767  0.55230466    -2.32220
O521        O  0.47586555  0.53231646  0.45059181    -2.28430
O522        O  0.02218967  0.98129480  0.54886231    -0.73020
H523        H  0.48260492  0.93095139  0.49496507     0.78980
H524        H  0.46735702  0.53635038  0.57266921     0.80060
H525        H  0.07787222  0.52025796  0.50115663     0.82290
H526        H  0.46617867  0.54300499  0.43149218     0.79900
H527        H  0.47497177  0.99162046  0.61619264     0.42930
H528        H  0.03154176  0.50899474  0.61693748     0.41900
H529        H  0.08038219  0.58043795  0.53606023     0.41580
H530        H  0.09114267  0.57142117  0.46843400     0.39510
H531        H  0.03555382  0.52065781  0.38339133     0.42650
H532        H  0.47311319  0.00483592  0.38285441     0.37430
H533        H  0.42196288  0.92859640  0.46220492     0.43550
H534        H  0.43039804  0.91824066  0.52779548     0.39960
H535        H  0.08298906  0.57981463  0.43075784     0.44880
H536        H  0.45173128  0.97510550  0.37718941     0.43600
H537        H  0.42309691  0.92437426  0.56610441     0.43740
H538        H  0.04667059  0.54223780  0.62167960     0.44100
C539        C  0.49529440  0.72689290  0.38169332     0.03650
C540        C  0.50057247  0.75655251  0.39716356    -0.12500
C541        C  0.50510568  0.78338255  0.37742621     0.01150
C542        C  0.50260935  0.78087088  0.34209472    -0.11030
C543        C  0.49601598  0.75192560  0.32632694     0.03640
C544        C  0.49356662  0.72494736  0.34610852    -0.10450
H545        H  0.50037589  0.75906247  0.42443605     0.09240
H546        H  0.50502544  0.80172382  0.32684070     0.06760
H547        H  0.48948943  0.70248018  0.33361214     0.06610
C548        C  0.21976077  0.50628665  0.37173135     0.03650
C549        C  0.24796600  0.51453032  0.38992659    -0.12500
C550        C  0.27560294  0.52428514  0.37268261     0.01150
C551        C  0.27424046  0.52601228  0.33720747    -0.11030
C552        C  0.24754245  0.51529947  0.31897404     0.03640
C553        C  0.22072168  0.50488716  0.33622438    -0.10450
H554        H  0.24826761  0.51371211  0.41726638     0.09240
H555        H  0.29444148  0.53493993  0.32340672     0.06760
H556        H  0.20010916  0.49657480  0.32180075     0.06610
C557        C  0.22271092  0.49773122  0.62767414     0.03650
C558        C  0.25154788  0.50281956  0.61059094    -0.12500
C559        C  0.27891128  0.51378263  0.62838513     0.01150
C560        C  0.27719912  0.51837424  0.66359242    -0.11030
C561        C  0.24907393  0.51198371  0.68103868     0.03640
C562        C  0.22189462  0.50170973  0.66299767    -0.10450
H563        H  0.25224742  0.49928616  0.58344858     0.09240
H564        H  0.29777809  0.52727271  0.67764630     0.06760
H565        H  0.19975488  0.49763076  0.67631985     0.06610
C566        C  0.49057016  0.73043613  0.62023572     0.03650
C567        C  0.49934101  0.75759247  0.60300453    -0.12500
C568        C  0.50106198  0.78703309  0.61994029     0.01150
C569        C  0.49403716  0.78827617  0.65484920    -0.11030
C570        C  0.48754509  0.76064504  0.67282389     0.03640
C571        C  0.48531176  0.73206456  0.65505420    -0.10450
H572        H  0.50519559  0.75543692  0.57648583     0.09240
H573        H  0.49366385  0.81060935  0.66830645     0.06760
H574        H  0.48029691  0.71063160  0.66850005     0.06610
C575        C  0.25035863  0.99525121  0.11846776     0.03650
C576        C  0.24427461  0.52381419  0.10207257    -0.12500
C577        C  0.24175935  0.55212576  0.12075568     0.01150
C578        C  0.24430007  0.55121152  0.15621202    -0.11030
C579        C  0.24802027  0.52235460  0.17299685     0.03640
C580        C  0.25168202  0.99452547  0.15378352    -0.10450
H581        H  0.24142154  0.52390330  0.07480028     0.09240
H582        H  0.24288628  0.57295407  0.17079174     0.06760
H583        H  0.25440994  0.97202849  0.16624615     0.06610
O584        O  0.22768768  0.85196556  0.93657139    -0.74770
O585        O  0.27409668  0.86153205  0.96585927    -0.53680
C586        C  0.25158670  0.86947210  0.94471340     0.78960
O587        O  0.15600207  0.77741850  0.06552995    -0.59370
O588        O  0.14882179  0.73034015  0.03860160    -0.52400
C589        C  0.14047563  0.75192856  0.06023694     0.70970
O590        O  0.22464547  0.85664410  0.05909221    -0.73930
O591        O  0.27382301  0.86273852  0.03557414    -0.54500
C592        C  0.24962133  0.87293374  0.05285668     0.76970
O593        O  0.15505676  0.77687037  0.93309917    -0.59080
O594        O  0.14718465  0.73131987  0.96165351    -0.52200
C595        C  0.13848775  0.75261892  0.94018180     0.73570
Zr596      Zr  0.20506104  0.80140961  0.94896992     2.54710
O597        O  0.16246496  0.84102423  0.94319523    -0.79640
O598        O  0.21091273  0.79591658  0.88799294    -0.93060
Zr599      Zr  0.20374356  0.80438220  0.04871862     2.64680
O600        O  0.15869527  0.84175859  0.04923523    -0.98010
O601        O  0.20975195  0.80584515  0.11005257    -0.80070
O602        O  0.22540836  0.82505366  0.99905468    -0.83430
O603        O  0.18202111  0.78155513  0.99862812    -2.18140
O604        O  0.25184469  0.68595913  0.93925874    -0.66820
O605        O  0.20320027  0.67908448  0.96423165    -0.51390
C606        C  0.22712848  0.66950822  0.94604981     0.71950
O607        O  0.32330736  0.76144804  0.06306574    -0.59730
O608        O  0.32976915  0.80895344  0.03760137    -0.51710
C609        C  0.33954624  0.78601597  0.05645659     0.73750
O610        O  0.24743489  0.68961780  0.06598633    -0.71130
O611        O  0.20105184  0.68061128  0.03582989    -0.49800
C612        C  0.22317053  0.67272367  0.05740968     0.75130
O613        O  0.32249571  0.76313483  0.93681237    -0.66450
O614        O  0.32870351  0.81007843  0.96500854    -0.53650
C615        C  0.33797540  0.78831510  0.94416594     0.73520
Zr616      Zr  0.27292914  0.73775403  0.95180283     2.77540
O617        O  0.31915717  0.70180146  0.95052068    -0.97200
O618        O  0.26733640  0.73898668  0.89047610    -0.78020
Zr619      Zr  0.27071860  0.73997412  0.05218376     2.70070
O620        O  0.31112439  0.69895710  0.06235207    -0.79270
O621        O  0.26445690  0.74963339  0.11253700    -0.98360
Zr622      Zr  0.28190818  0.81515639  0.00125934     2.21500
Zr623      Zr  0.19418481  0.72634652  0.99955609     2.11130
O624        O  0.25100099  0.71686571  0.00158496    -2.47040
O625        O  0.29371615  0.76005886  0.00252065    -0.79060
O626        O  0.21651266  0.74666199  0.94893038    -0.71260
O627        O  0.25993379  0.79489874  0.05205251    -2.32220
O628        O  0.26127965  0.79236236  0.94988692    -2.28430
O629        O  0.21466917  0.74953900  0.05077204    -0.73020
H630        H  0.15904075  0.78526882  0.99818880     0.78980
H631        H  0.26927693  0.80501596  0.07179783     0.80060
H632        H  0.25589357  0.69463673  0.00238256     0.82290
H633        H  0.27085660  0.80165674  0.93034638     0.79900
H634        H  0.22730082  0.82083403  0.11482700     0.42930
H635        H  0.24318035  0.74086085  0.11775618     0.41900
H636        H  0.31432126  0.68884804  0.03992649     0.41580
H637        H  0.31832202  0.69022461  0.97203728     0.39510
H638        H  0.24521973  0.73163718  0.88570899     0.42650
H639        H  0.22970320  0.80888153  0.88254831     0.37430
H640        H  0.16021562  0.85013109  0.96622908     0.43550
H641        H  0.14179938  0.83207277  0.03479278     0.39960
H642        H  0.31415031  0.68596969  0.93270478     0.44880
H643        H  0.19222323  0.80766817  0.87841963     0.43600
H644        H  0.15021568  0.84098623  0.07246929     0.43740
H645        H  0.28015050  0.73501430  0.12335466     0.44100
C646        C  0.45989690  0.76255363  0.12582204     0.03650
C647        C  0.45883827  0.75824867  0.16105782    -0.12500
C648        C  0.48717342  0.75201446  0.17996144     0.01150
C649        C  0.01656720  0.75041360  0.16298774    -0.11030
C650        C  0.01784364  0.75293351  0.12778285     0.03640
C651        C  0.48957532  0.75959140  0.10933704    -0.10450
H652        H  0.43586115  0.75953670  0.17361857     0.09240
H653        H  0.03879915  0.74709530  0.17718944     0.06760
H654        H  0.49080019  0.76299214  0.08228030     0.06610
C655        C  0.24428037  0.99121118  0.88072060     0.03650
C656        C  0.24579073  0.99078395  0.84538644    -0.12500
C657        C  0.24401035  0.51897139  0.82717521     0.01150
C658        C  0.23857478  0.54751034  0.84482445    -0.11030
C659        C  0.23581439  0.54789658  0.88014366     0.03640
C660        C  0.23957333  0.51977943  0.89807879    -0.10450
H661        H  0.24844345  0.96841532  0.83212981     0.09240
H662        H  0.23707538  0.56952041  0.83127149     0.06760
H663        H  0.23800502  0.52002731  0.92541703     0.06610
C664        C  0.45701306  0.77097454  0.87303167     0.03650
C665        C  0.48772769  0.77007485  0.88861708    -0.12500
C666        C  0.01484049  0.75914041  0.87095958     0.01150
C667        C  0.01151970  0.75130283  0.83662924    -0.11030
C668        C  0.48225915  0.75625479  0.81939707     0.03640
C669        C  0.45480224  0.76470760  0.83788991    -0.10450
H670        H  0.49074570  0.77791367  0.91457981     0.09240
H671        H  0.03224927  0.74285462  0.82268518     0.06760
H672        H  0.43198244  0.76678702  0.82457232     0.06610
C673        C  0.25693305  0.58845600  0.91874401    -0.11750
C674        C  0.23124046  0.57799013  0.89869201     0.05260
C675        C  0.20288316  0.59679200  0.89583702    -0.07040
C676        C  0.20143894  0.62604637  0.91307985    -0.07780
C677        C  0.22764936  0.63689812  0.93245164    -0.02330
C678        C  0.25575209  0.61763076  0.93550040     0.04480
N679        N  0.28336976  0.62716262  0.95527878     0.66990
H680        H  0.27843969  0.57380508  0.92092950     0.15890
H681        H  0.18011663  0.64088846  0.91062407     0.15600
N682        N  0.17566067  0.58682347  0.87563938     0.74700
O683        O  0.31119719  0.61752837  0.94739386    -0.38750
O684        O  0.27987180  0.64213884  0.98272190    -0.38700
O685        O  0.16939244  0.55796181  0.87200843    -0.39400
O686        O  0.15628493  0.60699695  0.86340823    -0.39470
C687        C  0.22161988  0.91258616  0.91590787    -0.11750
C688        C  0.25131049  0.90122166  0.92896967     0.05260
C689        C  0.27860291  0.92072690  0.92714049    -0.07040
C690        C  0.27527226  0.95071180  0.91259683    -0.07780
C691        C  0.24567547  0.96134268  0.89920619    -0.02330
C692        C  0.21841330  0.94217618  0.90100873     0.04480
N693        N  0.18743270  0.95211773  0.88773307     0.66990
H694        H  0.20023782  0.89847830  0.91770624     0.15890
H695        H  0.29624358  0.96537582  0.91040472     0.15600
N696        N  0.30996284  0.91023161  0.93824331     0.74700
O697        O  0.16747837  0.93190552  0.87738809    -0.38750
O698        O  0.17868629  0.98071048  0.88901245    -0.38700
O699        O  0.32118171  0.88412912  0.92785361    -0.39400
O700        O  0.32860966  0.92927950  0.95309437    -0.39470
C701        C  0.39314473  0.76225535  0.05895111    -0.11750
C702        C  0.37227194  0.78594117  0.07113053     0.05260
C703        C  0.38065323  0.80297064  0.10098522    -0.07040
C704        C  0.40992560  0.79525163  0.11766527    -0.07780
C705        C  0.42999102  0.77039789  0.10631423    -0.02330
C706        C  0.42130903  0.75364295  0.07654733     0.04480
N707        N  0.43905720  0.72614158  0.06550918     0.66990
H708        H  0.38598415  0.74846486  0.03690246     0.15890
H709        H  0.41680275  0.80809342  0.14040905     0.15600
N710        N  0.35975261  0.82695774  0.11554827     0.74700
O711        O  0.44787988  0.70561674  0.08665399    -0.38750
O712        O  0.44129453  0.71979597  0.03435827    -0.38700
O713        O  0.33060850  0.82971453  0.10653484    -0.39400
O714        O  0.37014487  0.84492723  0.13879455    -0.39470
C715        C  0.08623940  0.72798532  0.06930754    -0.11750
C716        C  0.11046601  0.74875448  0.08012634     0.05260
C717        C  0.10441677  0.76875044  0.10851335    -0.07040
C718        C  0.07384361  0.77006136  0.12253724    -0.07780
C719        C  0.04938945  0.75030403  0.11096555    -0.02330
C720        C  0.05593032  0.72803738  0.08491304     0.04480
N721        N  0.03276164  0.70467794  0.07511870     0.66990
H722        H  0.09094263  0.71154879  0.04875678     0.15890
H723        H  0.06932391  0.78624323  0.14342224     0.15600
N724        N  0.12935454  0.78682291  0.12457179     0.74700
O725        O  0.03198374  0.69392792  0.04523049    -0.38750
O726        O  0.01609844  0.69162743  0.09724407    -0.38700
O727        O  0.12377135  0.81489163  0.13396790    -0.39400
O728        O  0.15481082  0.77310864  0.13467128    -0.39470
C729        C  0.39558150  0.77666245  0.94434790    -0.11750
C730        C  0.36932187  0.79101420  0.92792155     0.05260
C731        C  0.37211537  0.80037102  0.89391263    -0.07040
C732        C  0.40165392  0.79535748  0.87757650    -0.07780
C733        C  0.42746652  0.77882265  0.89309287    -0.02330
C734        C  0.42398782  0.76931139  0.92715737     0.04480
N735        N  0.44750713  0.74972607  0.94391198     0.66990
H736        H  0.39281501  0.76821722  0.96990315     0.15890
H737        H  0.40411067  0.80390938  0.85211933     0.15600
N738        N  0.34514980  0.81344944  0.87507372     0.74700
O739        O  0.45630138  0.75622324  0.97383881    -0.38750
O740        O  0.45607852  0.72373740  0.93074865    -0.38700
O741        O  0.32136275  0.82582847  0.88994179    -0.39400
O742        O  0.34516177  0.81300384  0.84313984    -0.39470
C743        C  0.10482767  0.76302717  0.88941915    -0.11750
C744        C  0.10703611  0.75061208  0.92215827     0.05260
C745        C  0.07866609  0.74078639  0.93791084    -0.07040
C746        C  0.04913342  0.74286247  0.92029452    -0.07780
C747        C  0.04683827  0.75654643  0.88813968    -0.02330
C748        C  0.07516489  0.76728554  0.87285079     0.04480
N749        N  0.07411884  0.78469899  0.84191417     0.66990
H750        H  0.12628172  0.77144526  0.87739353     0.15890
H751        H  0.02754817  0.73494463  0.93243487     0.15600
N752        N  0.07880346  0.73161692  0.97263763     0.74700
O753        O  0.05412682  0.80713286  0.83828482    -0.38750
O754        O  0.09603470  0.78081854  0.82040852    -0.38700
O755        O  0.09083764  0.74968772  0.99484337    -0.39400
O756        O  0.06149884  0.70917588  0.98177067    -0.39470
C757        C  0.24659271  0.61984317  0.05918131    -0.11750
C758        C  0.22314652  0.64083325  0.07155029     0.05260
C759        C  0.20519294  0.63264057  0.10017270    -0.07040
C760        C  0.21164288  0.60334486  0.11550197    -0.07780
C761        C  0.23578023  0.58259534  0.10340879    -0.02330
C762        C  0.25351352  0.59116878  0.07482331     0.04480
N763        N  0.28005407  0.57230045  0.06269662     0.66990
H764        H  0.26128173  0.62683364  0.03838015     0.15890
H765        H  0.19773813  0.59660652  0.13713902     0.15600
N766        N  0.18149907  0.65380725  0.11471863     0.74700
O767        O  0.28518921  0.57009523  0.03135844    -0.38750
O768        O  0.30091626  0.56160491  0.08320273    -0.38700
O769        O  0.16786527  0.67491972  0.09721318    -0.39400
O770        O  0.17280145  0.65041276  0.14490314    -0.39470
C771        C  0.27953374  0.92027852  0.07382273    -0.11750
C772        C  0.25001387  0.90560906  0.06693581     0.05260
C773        C  0.22107884  0.92189576  0.07526766    -0.07040
C774        C  0.22236171  0.95121127  0.09151419    -0.07780
C775        C  0.25168111  0.96544837  0.09901420    -0.02330
C776        C  0.28090304  0.95018627  0.08972309     0.04480
N777        N  0.31185980  0.96416516  0.09642595     0.66990
H778        H  0.30169280  0.90807433  0.06726492     0.15890
H779        H  0.20008908  0.96317740  0.09830562     0.15600
N780        N  0.19007865  0.90956868  0.06662470     0.74700
O781        O  0.33724885  0.94750288  0.09503082    -0.38650
O782        O  0.31440522  0.99343701  0.10149291    -0.38700
O783        O  0.16822415  0.90938598  0.08847163    -0.39400
O784        O  0.18297122  0.90384197  0.03605260    -0.39470
C785        C  0.46063765  0.74343607  0.72587604    -0.11750
C786        C  0.48497687  0.76075650  0.71042445     0.05260
C787        C  0.00811028  0.77582528  0.73119175    -0.07040
C788        C  0.00552664  0.77468063  0.76628956    -0.07780
C789        C  0.48202077  0.75664143  0.78181249    -0.02330
C790        C  0.45948220  0.74024220  0.76129636     0.04480
N791        N  0.43674410  0.71902872  0.77555821     0.66990
H792        H  0.44322100  0.73119979  0.71011548     0.15890
H793        H  0.02314614  0.78697979  0.78171860     0.15600
N794        N  0.03619726  0.78958717  0.71731454     0.74700
O795        O  0.41081448  0.71299710  0.75994325    -0.38750
O796        O  0.44429273  0.70304790  0.80126428    -0.38700
O797        O  0.54669744  0.81513773  0.72949362    -0.39400
O798        O  0.05409944  0.77305361  0.69838957    -0.39470
C799        C  0.22499960  0.53613161  0.77018700    -0.11750
C800        C  0.24707650  0.51846540  0.78973145     0.05260
C801        C  0.27099969  0.00006140  0.77312226    -0.07040
C802        C  0.27080829  0.99832744  0.73769259    -0.07780
C803        C  0.24848610  0.51567450  0.71831257    -0.02330
C804        C  0.22602501  0.53569855  0.73474090     0.04480
N805        N  0.20537584  0.55681012  0.71598959     0.66990
H806        H  0.20700192  0.55070491  0.78263642     0.15890
H807        H  0.28860049  0.98365145  0.72501743     0.15600
N808        N  0.29622221  0.98392438  0.79157106     0.74700
O809        O  0.17790241  0.56427593  0.72701133    -0.38750
O810        O  0.21651926  0.57201289  0.69168186    -0.38700
O811        O  0.30735015  0.95793409  0.78068703    -0.39400
O812        O  0.31019926  0.99737004  0.81622413    -0.39470
C813        C  0.27054124  0.00199075  0.22729224    -0.11750
C814        C  0.24738939  0.52083424  0.21052878     0.05260
C815        C  0.22380122  0.53714005  0.22981291    -0.07040
C816        C  0.22457216  0.53478484  0.26511204    -0.07780
C817        C  0.24749248  0.51574138  0.28165848    -0.02330
C818        C  0.27053905  0.99862391  0.26255515     0.04480
N819        N  0.29329925  0.97714570  0.27821785     0.66990
H820        H  0.28849640  0.98933100  0.21264854     0.15890
H821        H  0.20677117  0.54758762  0.27986515     0.15600
N822        N  0.19823743  0.55514699  0.21415185     0.74700
O823        O  0.31949832  0.97035455  0.26387433    -0.38750
O824        O  0.28578606  0.96198511  0.30413406    -0.38700
O825        O  0.18238399  0.54365080  0.18961839    -0.39400
O826        O  0.18870179  0.58071533  0.22755369    -0.39470
C827        C  0.00962763  0.72866776  0.27029230    -0.11750
C828        C  0.49090461  0.75004013  0.28914030     0.05260
C829        C  0.46817410  0.76963781  0.27220320    -0.07040
C830        C  0.46716437  0.76945706  0.23666025    -0.07780
C831        C  0.48670783  0.74879766  0.21756216    -0.02330
C832        C  0.00714053  0.72705862  0.23490353     0.04480
N833        N  0.02496740  0.70282491  0.21722449     0.66990
H834        H  0.02623005  0.71290576  0.28332883     0.15890
H835        H  0.45104968  0.78578017  0.22382315     0.15600
N836        N  0.44546310  0.78906335  0.29055570     0.74700
O837        O  0.05256157  0.69438925  0.22774301    -0.38750
O838        O  0.01198170  0.68764407  0.19314614    -0.38700
O839        O  0.43379095  0.77954242  0.31783506    -0.39400
O840        O  0.43365231  0.81364080  0.27732722    -0.39470
C841        C  0.99773719  0.81926264  0.56705536    -0.11750
C842        C  0.50883498  0.81630035  0.60072875     0.05260
C843        C  0.02586507  0.84190237  0.61544913    -0.07040
C844        C  0.02859179  0.87014532  0.59775777    -0.07780
C845        C  0.01652216  0.87316053  0.56478421    -0.02330
C846        C  0.00180624  0.84702533  0.54870732     0.04480
N847        N  0.99030762  0.84812577  0.51421401     0.66990
H848        H  0.98436775  0.80037309  0.55513284     0.15890
H849        H  0.04035252  0.89001401  0.60987464     0.15600
N850        N  0.54200030  0.83927254  0.64748715     0.74700
O851        O  0.99121406  0.82356079  0.49588445    -0.38750
O852        O  0.47667626  0.87256619  0.50275508    -0.38700
O853        O  0.06373545  0.81851612  0.65125902    -0.39400
O854        O  0.53932694  0.86115401  0.66923569    -0.39470
C855        C  0.46627302  0.66154690  0.56280386    -0.11750
C856        C  0.48691682  0.63758477  0.57512236     0.05260
C857        C  0.00884600  0.64507726  0.60178590    -0.07040
C858        C  0.01002877  0.67575157  0.61469424    -0.07780
C859        C  0.48913669  0.69938422  0.60291610    -0.02330
C860        C  0.46670982  0.69232300  0.57669171     0.04480
N861        N  0.44377414  0.71549574  0.56456901     0.66990
H862        H  0.44944487  0.65620620  0.54245058     0.15890
H863        H  0.02689820  0.68101027  0.63508824     0.15600
N864        N  0.02917423  0.62166914  0.61732072     0.74700
O865        O  0.43270142  0.71355491  0.53473598    -0.38750
O866        O  0.43187006  0.73588409  0.58446599    -0.38700
O867        O  0.05882693  0.62672826  0.62151465    -0.39400
O868        O  0.01664772  0.59896094  0.63235209    -0.39470
C869        C  0.03581434  0.85446175  0.42827133    -0.11750
C870        C  0.01136332  0.87692233  0.42130023     0.05260
C871        C  0.48540548  0.86773757  0.39960225    -0.07040
C872        C  0.48424196  0.83713782  0.38651563    -0.07780
C873        C  0.50855404  0.81500804  0.39327157    -0.02330
C874        C  0.03504028  0.82372929  0.41410667     0.04480
N875        N  0.06161303  0.80230587  0.42026273     0.66990
H876        H  0.05587523  0.86095462  0.44453497     0.15890
H877        H  0.46405842  0.83062660  0.37034034     0.15600
N878        N  0.45991777  0.88901498  0.38996548     0.74700
O879        O  0.07853680  0.80500192  0.44687226    -0.38750
O880        O  0.07059067  0.78306335  0.39756921    -0.38700
O881        O  0.46557483  0.91091588  0.36970623    -0.39400
O882        O  0.43110799  0.88186989  0.39549170    -0.39470
C883        C  0.00299693  0.66275260  0.44864831    -0.11750
C884        C  0.48088805  0.64063991  0.43633989     0.05260
C885        C  0.46229026  0.64745931  0.40709911    -0.07040
C886        C  0.46657277  0.67640245  0.39100531    -0.07780
C887        C  0.49008359  0.69797025  0.40206651    -0.02330
C888        C  0.00839932  0.69090919  0.43158226     0.04480
N889        N  0.03431342  0.71046394  0.44309620     0.66990
H890        H  0.01800745  0.65691963  0.47039861     0.15890
H891        H  0.45167772  0.68184652  0.36910992     0.15600
N892        N  0.44060329  0.62483435  0.39214466     0.74700
O893        O  0.03862727  0.71548135  0.47435298    -0.38750
O894        O  0.05569991  0.71856136  0.42274032    -0.38700
O895        O  0.42619700  0.60536121  0.41017101    -0.39400
O896        O  0.43448707  0.62527889  0.36078470    -0.39470
C897        C  0.13797020  0.51155464  0.59609158    -0.11750
C898        C  0.13138497  0.98456767  0.57596646     0.05260
C899        C  0.15590518  0.96098436  0.57320425    -0.07040
C900        C  0.18617621  0.96601889  0.58925507    -0.07780
C901        C  0.19205427  0.49340326  0.60868123    -0.02330
C902        C  0.16759230  0.51637254  0.61177810     0.04480
N903        N  0.17282969  0.54555865  0.62967678     0.66990
H904        H  0.12033912  0.53039716  0.59890880     0.15890
H905        H  0.20485893  0.94801366  0.58763782     0.15600
N906        N  0.15038803  0.93153466  0.55591850     0.74700
O907        O  0.19710620  0.56183291  0.62323898    -0.38750
O908        O  0.15105507  0.55724454  0.64814692    -0.38700
O909        O  0.12483342  0.91671565  0.56095606    -0.39400
O910        O  0.17334193  0.91741239  0.54127841    -0.39470
C911        C  0.34140800  0.53800873  0.56369378    -0.11750
C912        C  0.36983005  0.52662654  0.57913674     0.05260
C913        C  0.36836190  0.51359428  0.61182063    -0.07040
C914        C  0.33848623  0.50923641  0.62663748    -0.07780
C915        C  0.30982432  0.51973743  0.61104930    -0.02330
C916        C  0.31151899  0.53549164  0.57976301     0.04480
N917        N  0.28341575  0.54950597  0.56438021     0.66990
H918        H  0.34238772  0.54851059  0.53890524     0.15890
H919        H  0.33773910  0.49761681  0.65082850     0.15600
N920        N  0.39708167  0.50523518  0.63055028     0.74700
O921        O  0.26466150  0.56672867  0.58165460    -0.38750
O922        O  0.27840036  0.54644084  0.53300279    -0.38700
O923        O  0.42071632  0.52357812  0.63117514    -0.39400
O924        O  0.39736915  0.98185283  0.64997593    -0.39470
C925        C  0.13040390  0.50566719  0.39133448    -0.11750
C926        C  0.12947860  0.98842656  0.42141754     0.05260
C927        C  0.15875853  0.97598031  0.43475598    -0.07040
C928        C  0.18791009  0.98194314  0.41825302    -0.07780
C929        C  0.18869461  0.50049998  0.38903093    -0.02330
C930        C  0.15933714  0.51298281  0.37596058     0.04480
N931        N  0.15848150  0.53517998  0.34877439     0.66990
H932        H  0.10836995  0.51577931  0.38090067     0.15890
H933        H  0.21011578  0.97200064  0.42840910     0.15600
N934        N  0.15978625  0.95871814  0.46566254     0.74700
O935        O  0.13632012  0.53405430  0.32664724    -0.38750
O936        O  0.17706123  0.55844566  0.34942469    -0.38700
O937        O  0.14441369  0.93343453  0.46785440    -0.39400
O938        O  0.18071437  0.96524500  0.48799993    -0.39470
C939        C  0.34052506  0.54709243  0.43843823    -0.11750
C940        C  0.36811019  0.53437768  0.42288623     0.05260
C941        C  0.36541819  0.52233125  0.38952865    -0.07040
C942        C  0.33503829  0.51855354  0.37482521    -0.07780
C943        C  0.30702021  0.53014191  0.39043907    -0.02330
C944        C  0.31011600  0.54643635  0.42189504     0.04480
N945        N  0.28337533  0.56341058  0.43652758     0.66990
H946        H  0.34271535  0.55753384  0.46347974     0.15890
H947        H  0.33349562  0.50667240  0.35049085     0.15600
N948        N  0.39341653  0.51483823  0.36984371     0.74700
O949        O  0.28291099  0.56896860  0.46792274    -0.38750
O950        O  0.26292155  0.57718646  0.41775696    -0.38700
O951        O  0.39269415  0.99287380  0.34802730    -0.39400
O952        O  0.41693775  0.53332437  0.37036554    -0.39470
O953        O  0.91505168  0.50488344  0.43438936    -0.74770
O954        O  0.90708007  0.05004834  0.46516304    -0.53680
C955        C  0.89869372  0.02982111  0.44221158     0.78960
O956        O  0.99004245  0.42146511  0.55869051    -0.59370
O957        O  0.53726595  0.41382817  0.53040578    -0.52400
C958        C  0.51484934  0.40490004  0.55026799     0.70970
O959        O  0.91634867  0.49835901  0.56439708    -0.73930
O960        O  0.90798211  0.04616326  0.53972576    -0.54500
C961        C  0.89998126  0.02388958  0.55971916     0.76970
O962        O  0.98716036  0.42653827  0.43296502    -0.59080
O963        O  0.53563662  0.41629933  0.45809457    -0.52200
C964        C  0.51182910  0.40870343  0.43831768     0.73570
Zr965      Zr  0.96529509  0.47783234  0.44791422     2.54710
O966        O  0.92169427  0.44061751  0.44091333    -0.79640
O967        O  0.97246413  0.48196252  0.38718873    -0.93060
Zr968      Zr  0.96598855  0.47276273  0.54729543     2.64680
O969        O  0.92274551  0.43472781  0.54380656    -0.98010
O970        O  0.96990525  0.46993727  0.60863742    -0.80070
O971        O  0.94285796  0.49695709  0.49895096    -0.83430
O972        O  0.98732307  0.45306373  0.49623326    -2.18140
O973        O  0.58172087  0.01506364  0.43555822    -0.66820
O974        O  0.59048067  0.46731506  0.45986827    -0.51390
C975        C  0.59863888  0.48986395  0.44030837     0.71950
O976        O  0.51222690  0.08854922  0.56356548    -0.59730
O977        O  0.96264444  0.09734067  0.54024333    -0.51710
C978        C  0.98697926  0.10574939  0.55869863     0.73750
O979        O  0.58113064  0.00804176  0.56554796    -0.71130
O980        O  0.59240336  0.46453808  0.53389719    -0.49800
C981        C  0.59957218  0.48483703  0.55735005     0.75130
O982        O  0.50836555  0.09264483  0.44237188    -0.66450
O983        O  0.96059881  0.09938769  0.46979147    -0.53650
C984        C  0.98308098  0.10873847  0.45035363     0.73520
Zr985      Zr  0.53198578  0.04083912  0.45229051     2.77540
O986        O  0.57389253  0.08036027  0.45376661    -0.97200
O987        O  0.52742991  0.04162009  0.39087420    -0.78020
Zr988      Zr  0.53234350  0.03593741  0.55146205     2.70070
O989        O  0.57645565  0.07252282  0.55905442    -0.79270
O990        O  0.52737238  0.03158712  0.61242640    -0.98360
Zr991      Zr  0.95422563  0.05182258  0.50276886     2.21500
Zr992      Zr  0.54412793  0.46139741  0.49689569     2.11130
O993        O  0.55499149  0.01662154  0.50064382    -2.47040
O994        O  0.51061203  0.06093144  0.50329654    -0.79060
O995        O  0.52150440  0.48619985  0.44762741    -0.71260
O996        O  0.97644714  0.02736765  0.55230492    -2.32220
O997        O  0.97586555  0.03231646  0.45059206    -2.28430
O998        O  0.52218969  0.48129482  0.54886205    -0.73020
H999        H  0.98260490  0.43095139  0.49496481     0.78980
H1000       H  0.96735700  0.03635036  0.57266946     0.80060
H1001       H  0.57787226  0.02025794  0.50115694     0.82290
H1002       H  0.96617868  0.04300499  0.43149242     0.79900
H1003       H  0.97497178  0.49162043  0.61619239     0.42930
H1004       H  0.53154172  0.00899482  0.61693778     0.41900
H1005       H  0.58038221  0.08043797  0.53606050     0.41580
H1006       H  0.59114273  0.07142113  0.46843428     0.39510
H1007       H  0.53555389  0.02065771  0.38339163     0.42650
H1008       H  0.97311316  0.50483589  0.38285414     0.37430
H1009       H  0.92196281  0.42859644  0.46220467     0.43550
H1010       H  0.93039808  0.41824062  0.52779521     0.39960
H1011       H  0.58298913  0.07981457  0.43075810     0.44880
H1012       H  0.95173125  0.47510547  0.37718915     0.43600
H1013       H  0.92309691  0.42437423  0.56610414     0.43740
H1014       H  0.54667055  0.04223789  0.62167988     0.44100
C1015       C  0.99529428  0.22689281  0.38169336     0.03650
C1016       C  0.00057236  0.25655243  0.39716357    -0.12500
C1017       C  0.00510554  0.28338246  0.37742618     0.01150
C1018       C  0.00260917  0.28087077  0.34209471    -0.11030
C1019       C  0.99601577  0.25192548  0.32632695     0.03640
C1020       C  0.99356645  0.22494725  0.34610856    -0.10450
H1021       H  0.00037581  0.25906242  0.42443605     0.09240
H1022       H  0.00502525  0.30172370  0.32684066     0.06760
H1023       H  0.98948925  0.20248006  0.33361220     0.06610
C1024       C  0.71976079  0.00628661  0.37173186     0.03650
C1025       C  0.74796601  0.01453034  0.38992710    -0.12500
C1026       C  0.77560291  0.02428520  0.37268310     0.01150
C1027       C  0.77424041  0.02601234  0.33720796    -0.11030
C1028       C  0.74754244  0.01529943  0.31897456     0.03640
C1029       C  0.72072171  0.00488706  0.33622490    -0.10450
H1030       H  0.74826761  0.01371216  0.41726688     0.09240
H1031       H  0.79444141  0.03494003  0.32340719     0.06760
H1032       H  0.70010921  0.99657463  0.32180129     0.06610
C1033       C  0.72271092  0.99773131  0.62767465     0.03650
C1034       C  0.75154784  0.00281964  0.61059136    -0.12500
C1035       C  0.77891130  0.01378267  0.62838547     0.01150
C1036       C  0.77719925  0.01837427  0.66359275    -0.11030
C1037       C  0.74907413  0.01198372  0.68103912     0.03640
C1038       C  0.72189474  0.00170980  0.66299820    -0.10450
H1039       H  0.75224731  0.99928624  0.58344900     0.09240
H1040       H  0.79777828  0.02727271  0.67764657     0.06760
H1041       H  0.69975505  0.99763083  0.67632046     0.06610
C1042       C  0.99057030  0.23043622  0.62023556     0.03650
C1043       C  0.99934115  0.25759256  0.60300438    -0.12500
C1044       C  0.00106211  0.28703318  0.61994014     0.01150
C1045       C  0.99403729  0.28827625  0.65484905    -0.11030
C1046       C  0.98754523  0.26064512  0.67282373     0.03640
C1047       C  0.98531190  0.23206465  0.65505403    -0.10450
H1048       H  0.00519574  0.25543701  0.57648567     0.09240
H1049       H  0.99366398  0.31060943  0.66830631     0.06760
H1050       H  0.98029706  0.21063168  0.66849988     0.06610
C1051       C  0.75035890  0.49525075  0.11846722     0.03650
C1052       C  0.74427425  0.02381358  0.10207315    -0.12500
C1053       C  0.74175886  0.05212518  0.12075615     0.01150
C1054       C  0.74429956  0.05121108  0.15621248    -0.11030
C1055       C  0.74801992  0.02235421  0.17299741     0.03640
C1056       C  0.75168226  0.49452504  0.15378300    -0.10450
H1057       H  0.74142126  0.02390262  0.07480085     0.09240
H1058       H  0.74288571  0.07295368  0.17079210     0.06760
H1059       H  0.75441017  0.47202806  0.16624564     0.06610
O1060       O  0.72768703  0.35196566  0.93657206    -0.74770
O1061       O  0.77409658  0.36153165  0.96585916    -0.53680
C1062       C  0.75158635  0.36947192  0.94471367     0.78960
O1063       O  0.65600269  0.27741768  0.06553104    -0.59370
O1064       O  0.64882158  0.23033986  0.03860191    -0.52400
C1065       C  0.64047584  0.25192804  0.06023767     0.70970
O1066       O  0.72464628  0.35664311  0.05909308    -0.73930
O1067       O  0.77382335  0.36273781  0.03557400    -0.54500
C1068       C  0.74962192  0.37293289  0.05285699     0.76970
O1069       O  0.65505580  0.27687073  0.93309999    -0.59080
O1070       O  0.64718387  0.23132005  0.96165408    -0.52200
C1071       C  0.63848691  0.25261917  0.94018249     0.73570
Zr1072     Zr  0.70505994  0.30141010  0.94897086     2.54710
O1073       O  0.66246380  0.34102498  0.94319910    -0.79640
O1074       O  0.71090985  0.29591839  0.88799354    -0.93060
Zr1075     Zr  0.70374434  0.30438122  0.04871976     2.64680
O1076       O  0.65869632  0.34175783  0.04923854    -0.98010
O1077       O  0.70975441  0.30584263  0.11005359    -0.80070
O1078       O  0.72540841  0.32505305  0.99905566    -0.83430
O1079       O  0.68202091  0.28155516  0.99862924    -2.18140
O1080       O  0.75184163  0.18596028  0.93925573    -0.66820
O1081       O  0.70319856  0.17908484  0.96423123    -0.51390
C1082       C  0.72712592  0.16950912  0.94604797     0.71950
O1083       O  0.82330803  0.26144692  0.06306445    -0.59730
O1084       O  0.82976946  0.30895265  0.03760064    -0.51710
C1085       C  0.83954676  0.28601501  0.05645555     0.73750
O1086       O  0.74743575  0.18961675  0.06598491    -0.71130
O1087       O  0.70105205  0.18061082  0.03582944    -0.49800
C1088       C  0.72317106  0.17272288  0.05740876     0.75130
O1089       O  0.82249471  0.26313470  0.93681074    -0.66450
O1090       O  0.82870331  0.31007775  0.96500786    -0.53650
C1091       C  0.83797484  0.28831462  0.94416485     0.73520
Zr1092     Zr  0.77292767  0.23775442  0.95180089     2.77540
O1093       O  0.81915442  0.20180031  0.95051731    -0.97200
O1094       O  0.76733468  0.23898892  0.89047409    -0.78020
Zr1095     Zr  0.77071925  0.23997311  0.05218233     2.70070
O1096       O  0.81112497  0.19895543  0.06234752    -0.79270
O1097       O  0.76445934  0.24963070  0.11253624    -0.98360
Zr1098     Zr  0.78190823  0.31515583  0.00125894     2.21500
Zr1099     Zr  0.69418433  0.22634654  0.99955616     2.11130
O1100       O  0.75099948  0.21687026  0.00158331    -2.47040
O1101       O  0.79371589  0.26005823  0.00251884    -0.79060
O1102       O  0.71651118  0.24666247  0.94893011    -0.71260
O1103       O  0.75993455  0.29489768  0.05205212    -2.32220
O1104       O  0.76127849  0.29236279  0.94988660    -2.28430
O1105       O  0.71466976  0.24953800  0.05077216    -0.73020
H1106       H  0.65904056  0.28526899  0.99819031     0.78980
H1107       H  0.76927805  0.30501467  0.07179742     0.80060
H1108       H  0.75589183  0.19464090  0.00238070     0.82290
H1109       H  0.77085518  0.30165750  0.93034606     0.79900
H1110       H  0.72730236  0.32083255  0.11482795     0.42930
H1111       H  0.74318253  0.24085889  0.11775571     0.41900
H1112       H  0.81431919  0.18884560  0.03992190     0.41580
H1113       H  0.81832107  0.19022556  0.97203535     0.39510
H1114       H  0.74521755  0.23164080  0.88570682     0.42650
H1115       H  0.72970143  0.30888180  0.88254890     0.37430
H1116       H  0.66021619  0.35013204  0.96623307     0.43550
H1117       H  0.64180011  0.33207253  0.03479610     0.39960
H1118       H  0.81414549  0.18596693  0.93270371     0.44880
H1119       H  0.69222122  0.30767192  0.87842109     0.43600
H1120       H  0.65021716  0.34098487  0.07247274     0.43740
H1121       H  0.78015256  0.23501067  0.12335305     0.44100
C1122       C  0.95989702  0.26255341  0.12582196     0.03650
C1123       C  0.95883826  0.25824852  0.16105775    -0.12500
C1124       C  0.98717335  0.25201442  0.17996149     0.01150
C1125       C  0.51656712  0.25041353  0.16298781    -0.11030
C1126       C  0.51784366  0.25293342  0.12778294     0.03640
C1127       C  0.98957551  0.25959129  0.10933711    -0.10450
H1128       H  0.93586108  0.25953648  0.17361839     0.09240
H1129       H  0.53879903  0.24709523  0.17718958     0.06760
H1130       H  0.99080049  0.26299198  0.08228036     0.06610
C1131       C  0.74427998  0.49121070  0.88072035     0.03650
C1132       C  0.74579019  0.49078346  0.84538617    -0.12500
C1133       C  0.74401179  0.01897138  0.82717575     0.01150
C1134       C  0.73857610  0.04751032  0.84482499    -0.11030
C1135       C  0.73581540  0.04789659  0.88014420     0.03640
C1136       C  0.73957433  0.01977940  0.89807931    -0.10450
H1137       H  0.74844294  0.46841484  0.83212954     0.09240
H1138       H  0.73707659  0.06952035  0.83127198     0.06760
H1139       H  0.73800556  0.02002718  0.92541751     0.06610
C1140       C  0.95701285  0.27097420  0.87303132     0.03650
C1141       C  0.98772740  0.27007463  0.88861690    -0.12500
C1142       C  0.51484018  0.25914031  0.87095961     0.01150
C1143       C  0.51151955  0.25130272  0.83662926    -0.11030
C1144       C  0.98225922  0.25625460  0.81939686     0.03640
C1145       C  0.95480221  0.26470730  0.83788956    -0.10450
H1146       H  0.99074525  0.27791344  0.91457965     0.09240
H1147       H  0.53224917  0.24285450  0.82268530     0.06760
H1148       H  0.93198246  0.26678664  0.82457187     0.06610
C1149       C  0.75693033  0.08845504  0.91874863    -0.11750
C1150       C  0.73124014  0.07799016  0.89869244     0.05260
C1151       C  0.70288406  0.09679322  0.89583292    -0.07040
C1152       C  0.70143883  0.12604794  0.91307496    -0.07780
C1153       C  0.72764709  0.13689879  0.93245067    -0.02330
C1154       C  0.75574851  0.11763017  0.93550444     0.04480
N1155       N  0.78336412  0.12716130  0.95528684     0.66990
H1156       H  0.77843595  0.07380314  0.92093753     0.15890
H1157       H  0.68011753  0.14089094  0.91061563     0.15600
N1158       N  0.67566372  0.08682535  0.87563164     0.74700
O1159       O  0.81119166  0.11752067  0.94741053    -0.38750
O1160       O  0.77986370  0.14214593  0.98272438    -0.38700
O1161       O  0.66939372  0.05796393  0.87200208    -0.39400
O1162       O  0.65629115  0.10699935  0.86339609    -0.39470
C1163       C  0.72161952  0.41258595  0.91590820    -0.11750
C1164       C  0.75131018  0.40122141  0.92896984     0.05260
C1165       C  0.77860267  0.42072652  0.92714033    -0.07040
C1166       C  0.77527202  0.45071135  0.91259650    -0.07780
C1167       C  0.74567518  0.46134225  0.89920600    -0.02330
C1168       C  0.71841295  0.44217586  0.90100887     0.04480
N1169       N  0.68743231  0.45211741  0.88773333     0.66990
H1170       H  0.70023741  0.39847821  0.91770682     0.15890
H1171       H  0.79624336  0.46537530  0.91040417     0.15600
N1172       N  0.80996263  0.41023118  0.93824300     0.74700
O1173       O  0.66747793  0.43190519  0.87738847    -0.38750
O1174       O  0.67868592  0.48071017  0.88901270    -0.38700
O1175       O  0.82118138  0.38412865  0.92785327    -0.39400
O1176       O  0.82860957  0.42927906  0.95309389    -0.39470
C1177       C  0.89314533  0.26225452  0.05895055    -0.11750
C1178       C  0.87227238  0.28594036  0.07112966     0.05260
C1179       C  0.88065336  0.30296995  0.10098436    -0.07040
C1180       C  0.90992562  0.29525113  0.11766469    -0.07780
C1181       C  0.92999122  0.27039742  0.10631394    -0.02330
C1182       C  0.92130951  0.25364230  0.07654706     0.04480
N1183       N  0.93905787  0.22614094  0.06550922     0.66990
H1184       H  0.88598494  0.24846390  0.03690192     0.15890
H1185       H  0.91680252  0.30809303  0.14040849     0.15600
N1186       N  0.85975247  0.32695694  0.11554715     0.74700
O1187       O  0.94788043  0.20561621  0.08665420    -0.38750
O1188       O  0.94129554  0.21979524  0.03435836    -0.38700
O1189       O  0.83060808  0.32971271  0.10653443    -0.39400
O1190       O  0.87014474  0.34492720  0.13879274    -0.39470
C1191       C  0.58623962  0.22798491  0.06930815    -0.11750
C1192       C  0.61046620  0.24875407  0.08012701     0.05260
C1193       C  0.60441689  0.26875014  0.10851391    -0.07040
C1194       C  0.57384364  0.27006120  0.12253756    -0.07780
C1195       C  0.54938951  0.25030386  0.11096581    -0.02330
C1196       C  0.55593047  0.22803706  0.08491347     0.04480
N1197       N  0.53276184  0.20467757  0.07511916     0.66990
H1198       H  0.59094291  0.21154831  0.04875747     0.15890
H1199       H  0.56932384  0.28624316  0.14342246     0.15600
N1200       N  0.62935462  0.28682263  0.12457242     0.74700
O1201       O  0.53198418  0.19392726  0.04523107    -0.38750
O1202       O  0.51609849  0.19162722  0.09724453    -0.38700
O1203       O  0.62377138  0.31489134  0.13396854    -0.39400
O1204       O  0.65481094  0.27310841  0.13467189    -0.39470
C1205       C  0.89558089  0.27666172  0.94434711    -0.11750
C1206       C  0.86932138  0.29101355  0.92792064     0.05260
C1207       C  0.87211504  0.30037048  0.89391180    -0.07040
C1208       C  0.90165367  0.29535700  0.87757583    -0.07780
C1209       C  0.92746620  0.27882216  0.89309233    -0.02330
C1210       C  0.92398733  0.26931077  0.92715676     0.04480
N1211       N  0.94750663  0.24972553  0.94391150     0.66990
H1212       H  0.89281425  0.26821641  0.96990231     0.15890
H1213       H  0.90411056  0.30390898  0.85211871     0.15600
N1214       N  0.84514956  0.31344900  0.87507282     0.74700
O1215       O  0.95630062  0.25622267  0.97383842    -0.38750
O1216       O  0.95607826  0.22373694  0.93074817    -0.38700
O1217       O  0.82136247  0.32582801  0.88994083    -0.39400
O1218       O  0.84516168  0.31300353  0.84313893    -0.39470
C1219       C  0.60482718  0.26302714  0.88941966    -0.11750
C1220       C  0.60703542  0.25061219  0.92215883     0.05260
C1221       C  0.57866537  0.24078643  0.93791127    -0.07040
C1222       C  0.54913280  0.24286241  0.92029475    -0.07780
C1223       C  0.54683785  0.25654633  0.88813987    -0.02330
C1224       C  0.57516453  0.26728543  0.87285112     0.04480
N1225       N  0.57411866  0.28469881  0.84191445     0.66990
H1226       H  0.62628130  0.27144521  0.87739414     0.15890
H1227       H  0.52754750  0.23494454  0.93243497     0.15600
N1228       N  0.57880260  0.23161690  0.97263805     0.74700
O1229       O  0.55412672  0.30713274  0.83828497    -0.38750
O1230       O  0.59603465  0.28081832  0.82040896    -0.38700
O1231       O  0.59083698  0.24968750  0.99484386    -0.39400
O1232       O  0.56149784  0.20917594  0.98177101    -0.39470
C1233       C  0.74659349  0.11984234  0.05918174    -0.11750
C1234       C  0.72314686  0.14083248  0.07154978     0.05260
C1235       C  0.70519271  0.13263988  0.10017189    -0.07040
C1236       C  0.71164240  0.10334427  0.11550155    -0.07780
C1237       C  0.73577998  0.08259469  0.10340904    -0.02330
C1238       C  0.75351389  0.09116801  0.07482400     0.04480
N1239       N  0.78005465  0.07229957  0.06269800     0.66990
H1240       H  0.76128326  0.12683266  0.03838121     0.15890
H1241       H  0.69773727  0.09660604  0.13713837     0.15600
N1242       N  0.68149862  0.15380661  0.11471735     0.74700
O1243       O  0.78519027  0.07009402  0.03135994    -0.38750
O1244       O  0.80091651  0.06160423  0.08320460    -0.38700
O1245       O  0.66786488  0.17491884  0.09721151    -0.39400
O1246       O  0.67280074  0.15041237  0.14490181    -0.39470
C1247       C  0.77953422  0.42027786  0.07382265    -0.11750
C1248       C  0.75001439  0.40560828  0.06693588     0.05260
C1249       C  0.72107931  0.42189497  0.07526752    -0.07040
C1250       C  0.72236208  0.45121062  0.09151379    -0.07780
C1251       C  0.75168144  0.46544786  0.09901371    -0.02330
C1252       C  0.78090342  0.45018576  0.08972274     0.04480
N1253       N  0.81186011  0.46416480  0.09642546     0.66990
H1254       H  0.80169331  0.40807367  0.06726496     0.15890
H1255       H  0.70008942  0.46317674  0.09830510     0.15600
N1256       N  0.69007918  0.40956776  0.06662456     0.74700
O1257       O  0.83724922  0.44750257  0.09503059    -0.38650
O1258       O  0.81440544  0.49343672  0.10149197    -0.38700
O1259       O  0.66822449  0.40938549  0.08847130    -0.39400
O1260       O  0.68297199  0.40384047  0.03605251    -0.39470
C1261       C  0.96063779  0.24343608  0.72587582    -0.11750
C1262       C  0.98497701  0.26075654  0.71042428     0.05260
C1263       C  0.50811038  0.27582528  0.73119174    -0.07040
C1264       C  0.50552672  0.27468055  0.76628954    -0.07780
C1265       C  0.98202095  0.25664125  0.78181229    -0.02330
C1266       C  0.95948235  0.24024209  0.76129612     0.04480
N1267       N  0.93674425  0.21902858  0.77555791     0.66990
H1268       H  0.94322111  0.23119985  0.71011523     0.15890
H1269       H  0.52314622  0.28697967  0.78171862     0.15600
N1270       N  0.53619736  0.28958720  0.71731456     0.74700
O1271       O  0.91081460  0.21299706  0.75994298    -0.38750
O1272       O  0.94429292  0.20304764  0.80126388    -0.38700
O1273       O  0.04669755  0.31513774  0.72949354    -0.39400
O1274       O  0.55409954  0.27305368  0.69838955    -0.39470
C1275       C  0.72500052  0.03613154  0.77018770    -0.11750
C1276       C  0.74707763  0.01846536  0.78973195     0.05260
C1277       C  0.77099929  0.50006108  0.77312207    -0.07040
C1278       C  0.77080805  0.49832723  0.73769241    -0.07780
C1279       C  0.74848653  0.01567442  0.71831303    -0.02330
C1280       C  0.72602559  0.03569847  0.73474158     0.04480
N1281       N  0.70537623  0.05681003  0.71599048     0.66990
H1282       H  0.70700294  0.05070484  0.78263729     0.15890
H1283       H  0.78860033  0.48365129  0.72501728     0.15600
N1284       N  0.79622177  0.48392408  0.79157094     0.74700
O1285       O  0.67790293  0.06427586  0.72701253    -0.38750
O1286       O  0.71651940  0.07201276  0.69168260    -0.38700
O1287       O  0.80734978  0.45793382  0.78068691    -0.39400
O1288       O  0.81019874  0.49736974  0.81622406    -0.39470
C1289       C  0.77054132  0.50199035  0.22729181    -0.11750
C1290       C  0.74738916  0.02083397  0.21052934     0.05260
C1291       C  0.72380102  0.03713980  0.22981347    -0.07040
C1292       C  0.72457205  0.03478469  0.26511259    -0.07780
C1293       C  0.74749244  0.01574131  0.28165903    -0.02330
C1294       C  0.77053908  0.49862359  0.26255473     0.04480
N1295       N  0.79329923  0.47714538  0.27821751     0.66990
H1296       H  0.78849648  0.48933054  0.21264817     0.15890
H1297       H  0.70677108  0.04758748  0.27986571     0.15600
N1298       N  0.69823718  0.05514667  0.21415242     0.74700
O1299       O  0.81949830  0.47035414  0.26387402    -0.38750
O1300       O  0.78578601  0.46198489  0.30413378    -0.38700
O1301       O  0.68238365  0.04365039  0.18961908    -0.39400
O1302       O  0.68870161  0.08071509  0.22755416    -0.39470
C1303       C  0.50962741  0.22866763  0.27029225    -0.11750
C1304       C  0.99090438  0.25003999  0.28914032     0.05260
C1305       C  0.96817388  0.26963768  0.27220321    -0.07040
C1306       C  0.96716417  0.26945694  0.23666026    -0.07780
C1307       C  0.98670766  0.24879756  0.21756219    -0.02330
C1308       C  0.50714031  0.22705850  0.23490349     0.04480
N1309       N  0.52496720  0.20282479  0.21722445     0.66990
H1310       H  0.52622982  0.21290562  0.28332878     0.15890
H1311       H  0.95104948  0.28578004  0.22382314     0.15600
N1312       N  0.94546290  0.28906324  0.29055570     0.74700
O1313       O  0.55256136  0.19438914  0.22774296    -0.38750
O1314       O  0.51198152  0.18764397  0.19314607    -0.38700
O1315       O  0.93379076  0.27954234  0.31783508    -0.39400
O1316       O  0.93365213  0.31364070  0.27732722    -0.39470
C1317       C  0.49773726  0.31926272  0.56705530    -0.11750
C1318       C  0.00883508  0.31630043  0.60072859     0.05260
C1319       C  0.52586514  0.34190249  0.61544905    -0.07040
C1320       C  0.52859185  0.37014543  0.59775765    -0.07780
C1321       C  0.51652223  0.37316060  0.56478409    -0.02330
C1322       C  0.50180631  0.34702539  0.54870723     0.04480
N1323       N  0.49030769  0.34812580  0.51421392     0.66990
H1324       H  0.48436783  0.30037316  0.55513279     0.15890
H1325       H  0.54035258  0.39001413  0.60987451     0.15600
N1326       N  0.04200037  0.33927268  0.64748698     0.74700
O1327       O  0.49121412  0.32356080  0.49588438    -0.38750
O1328       O  0.97667629  0.37256619  0.50275489    -0.38700
O1329       O  0.56373548  0.31851624  0.65125900    -0.39400
O1330       O  0.03932697  0.36115417  0.66923551    -0.39470
C1331       C  0.96627308  0.16154692  0.56280389    -0.11750
C1332       C  0.98691689  0.13758481  0.57512241     0.05260
C1333       C  0.50884611  0.14507736  0.60178594    -0.07040
C1334       C  0.51002892  0.17575169  0.61469421    -0.07780
C1335       C  0.98913684  0.19938431  0.60291597    -0.02330
C1336       C  0.96670992  0.19232304  0.57669165     0.04480
N1337       N  0.94377421  0.21549576  0.56456895     0.66990
H1338       H  0.94944490  0.15620617  0.54245066     0.15890
H1339       H  0.52689837  0.18101042  0.63508818     0.15600
N1340       N  0.52917434  0.12166926  0.61732080     0.74700
O1341       O  0.93270142  0.21355486  0.53473596    -0.38750
O1342       O  0.93187018  0.23588416  0.58446593    -0.38700
O1343       O  0.55882704  0.12672836  0.62151469    -0.39400
O1344       O  0.51664783  0.09896109  0.63235223    -0.39470
C1345       C  0.53581431  0.35446171  0.42827115    -0.11750
C1346       C  0.51136328  0.37692228  0.42130007     0.05260
C1347       C  0.98540535  0.36773749  0.39960213    -0.07040
C1348       C  0.98424181  0.33713772  0.38651558    -0.07780
C1349       C  0.00855392  0.31500796  0.39327150    -0.02330
C1350       C  0.53504023  0.32372924  0.41410652     0.04480
N1351       N  0.56161300  0.30230583  0.42026255     0.66990
H1352       H  0.55587523  0.36095460  0.44453474     0.15890
H1353       H  0.96405824  0.33062648  0.37034033     0.15600
N1354       N  0.95991762  0.38901489  0.38996537     0.74700
O1355       O  0.57853681  0.30500191  0.44687205    -0.38750
O1356       O  0.57059060  0.28306330  0.39756904    -0.38700
O1357       O  0.96557464  0.41091577  0.36970608    -0.39400
O1358       O  0.93110785  0.38186979  0.39549165    -0.39470
C1359       C  0.50299695  0.16275257  0.44864833    -0.11750
C1360       C  0.98088801  0.14063986  0.43634004     0.05260
C1361       C  0.96229022  0.14745922  0.40709925    -0.07040
C1362       C  0.96657269  0.17640235  0.39100542    -0.07780
C1363       C  0.99008350  0.19797017  0.40206658    -0.02330
C1364       C  0.50839931  0.19090915  0.43158225     0.04480
N1365       N  0.53431340  0.21046393  0.44309615     0.66990
H1366       H  0.51800749  0.15691963  0.47039864     0.15890
H1367       H  0.95167763  0.18184638  0.36911003     0.15600
N1368       N  0.94060326  0.12483423  0.39214483     0.74700
O1369       O  0.53862726  0.21548137  0.47435292    -0.38750
O1370       O  0.55569988  0.21856133  0.42274025    -0.38700
O1371       O  0.92619698  0.10536110  0.41017121    -0.39400
O1372       O  0.93448705  0.12527872  0.36078487    -0.39470
C1373       C  0.63797012  0.01155462  0.59609218    -0.11750
C1374       C  0.63138499  0.48456767  0.57596615     0.05260
C1375       C  0.65590517  0.46098433  0.57320394    -0.07040
C1376       C  0.68617621  0.46601884  0.58925476    -0.07780
C1377       C  0.69205423  0.99340330  0.60868181    -0.02330
C1378       C  0.66759221  0.01637253  0.61177875     0.04480
N1379       N  0.67282954  0.04555862  0.62967751     0.66990
H1380       H  0.62033901  0.03039710  0.59890945     0.15890
H1381       H  0.70485891  0.44801359  0.58763752     0.15600
N1382       N  0.65038800  0.43153464  0.55591820     0.74700
O1383       O  0.69710601  0.06183294  0.62323975    -0.38750
O1384       O  0.65105490  0.05724442  0.64814768    -0.38700
O1385       O  0.62483339  0.41671564  0.56095580    -0.39400
O1386       O  0.67334187  0.41741236  0.54127808    -0.39470
C1387       C  0.84140797  0.03800871  0.56369401    -0.11750
C1388       C  0.86983003  0.02662651  0.57913695     0.05260
C1389       C  0.86836190  0.01359424  0.61182084    -0.07040
C1390       C  0.83848624  0.00923636  0.62663770    -0.07780
C1391       C  0.80982432  0.01973741  0.61104957    -0.02330
C1392       C  0.81151897  0.03549163  0.57976328     0.04480
N1393       N  0.78341572  0.04950598  0.56438052     0.66990
H1394       H  0.84238767  0.04851058  0.53890548     0.15890
H1395       H  0.83773913  0.99761675  0.65082871     0.15600
N1396       N  0.89708168  0.00523514  0.63055047     0.74700
O1397       O  0.76466152  0.06672870  0.58165493    -0.38750
O1398       O  0.77840027  0.04644080  0.53300312    -0.38700
O1399       O  0.92071632  0.02357809  0.63117534    -0.39400
O1400       O  0.89736916  0.48185286  0.64997581    -0.39470
C1401       C  0.63040393  0.00566708  0.39133484    -0.11750
C1402       C  0.62947861  0.48842660  0.42141723     0.05260
C1403       C  0.65875855  0.47598034  0.43475564    -0.07040
C1404       C  0.68791010  0.48194315  0.41825264    -0.07780
C1405       C  0.68869464  0.00049994  0.38903141    -0.02330
C1406       C  0.65933718  0.01298273  0.37596100     0.04480
N1407       N  0.65848156  0.03517990  0.34877481     0.66990
H1408       H  0.60836998  0.01577916  0.38090100     0.15890
H1409       H  0.71011579  0.47200064  0.42840871     0.15600
N1410       N  0.65978629  0.45871818  0.46566221     0.74700
O1411       O  0.63632021  0.03405420  0.32664762    -0.38750
O1412       O  0.67706127  0.05844560  0.34942513    -0.38700
O1413       O  0.64441371  0.43343458  0.46785410    -0.39400
O1414       O  0.68071443  0.46524503  0.48799958    -0.39470
C1415       C  0.84052510  0.04709249  0.43843861    -0.11750
C1416       C  0.86811020  0.03437772  0.42288657     0.05260
C1417       C  0.86541815  0.02233127  0.38952900    -0.07040
C1418       C  0.83503824  0.01855357  0.37482561    -0.07780
C1419       C  0.80702019  0.03014197  0.39043951    -0.02330
C1420       C  0.81011602  0.04643642  0.42189546     0.04480
N1421       N  0.78337537  0.06341067  0.43652803     0.66990
H1422       H  0.84271543  0.05753391  0.46348011     0.15890
H1423       H  0.83349554  0.00667242  0.35049126     0.15600
N1424       N  0.89341647  0.01483825  0.36984402     0.74700
O1425       O  0.78291110  0.06896875  0.46792318    -0.38750
O1426       O  0.76292154  0.07718649  0.41775742    -0.38700
O1427       O  0.89269424  0.49287387  0.34802698    -0.39400
O1428       O  0.91693769  0.03332438  0.37036582    -0.39470
O1429       O  0.91505168  0.00488344  0.43438959    -0.74770
O1430       O  0.90708007  0.55004833  0.46516283    -0.53680
C1431       C  0.89869372  0.52982111  0.44221135     0.78960
O1432       O  0.99004236  0.92146508  0.55869071    -0.59370
O1433       O  0.53726595  0.91382812  0.53040600    -0.52400
C1434       C  0.51484933  0.90489998  0.55026818     0.70970
O1435       O  0.91634863  0.99835904  0.56439728    -0.73930
O1436       O  0.90798213  0.54616322  0.53972556    -0.54500
C1437       C  0.89998130  0.52388955  0.55971897     0.76970
O1438       O  0.98716040  0.92653829  0.43296525    -0.59080
O1439       O  0.53563667  0.91629933  0.45809479    -0.52200
C1440       C  0.51182916  0.90870345  0.43831788     0.73570
Zr1441     Zr  0.96529510  0.97783234  0.44791446     2.54710
O1442       O  0.92169430  0.94061749  0.44091356    -0.79640
O1443       O  0.97246414  0.98196254  0.38718898    -0.93060
Zr1444     Zr  0.96598851  0.97276274  0.54729568     2.64680
O1445       O  0.92274544  0.93472786  0.54380683    -0.98010
O1446       O  0.96990521  0.96993728  0.60863767    -0.80070
O1447       O  0.94285795  0.99695711  0.49895119    -0.83430
O1448       O  0.98732305  0.95306374  0.49623352    -2.18140
O1449       O  0.58172083  0.51506368  0.43555796    -0.66820
O1450       O  0.59048070  0.96731502  0.45986853    -0.51390
C1451       C  0.59863891  0.98986391  0.44030863     0.71950
O1452       O  0.51222682  0.58854920  0.56356533    -0.59730
O1453       O  0.96264445  0.59734063  0.54024317    -0.51710
C1454       C  0.98697927  0.60574934  0.55869849     0.73750
O1455       O  0.58113061  0.50804177  0.56554768    -0.71130
O1456       O  0.59240339  0.96453806  0.53389749    -0.49800
C1457       C  0.59957221  0.98483702  0.55735035     0.75130
O1458       O  0.50836552  0.59264487  0.44237169    -0.66450
O1459       O  0.96059881  0.59938771  0.46979133    -0.53650
C1460       C  0.98308098  0.60873851  0.45035349     0.73520
Zr1461     Zr  0.53198573  0.54083914  0.45229025     2.77540
O1462       O  0.57389248  0.58036030  0.45376634    -0.97200
O1463       O  0.52742984  0.54162013  0.39087394    -0.78020
Zr1464     Zr  0.53234347  0.53593743  0.55146179     2.70070
O1465       O  0.57645559  0.57252287  0.55905411    -0.79270
O1466       O  0.52737240  0.53158710  0.61242614    -0.98360
Zr1467     Zr  0.95422564  0.55182257  0.50276864     2.21500
Zr1468     Zr  0.54412797  0.96139738  0.49689596     2.11130
O1469       O  0.55499145  0.51662157  0.50064356    -2.47040
O1470       O  0.51061197  0.56093145  0.50329628    -0.79060
O1471       O  0.52150444  0.98619984  0.44762768    -0.71260
O1472       O  0.97644718  0.52736763  0.55230468    -2.32220
O1473       O  0.97586554  0.53231646  0.45059182    -2.28430
O1474       O  0.52218973  0.98129480  0.54886231    -0.73020
H1475       H  0.98260487  0.93095140  0.49496506     0.78980
H1476       H  0.96735705  0.53635033  0.57266923     0.80060
H1477       H  0.57787222  0.52025797  0.50115667     0.82290
H1478       H  0.96617866  0.54300500  0.43149220     0.79900
H1479       H  0.97497175  0.99162044  0.61619263     0.42930
H1480       H  0.53154174  0.50899479  0.61693749     0.41900
H1481       H  0.58038212  0.58043802  0.53606018     0.41580
H1482       H  0.59114268  0.57142116  0.46843401     0.39510
H1483       H  0.53555386  0.52065777  0.38339136     0.42650
H1484       H  0.97311318  0.00483591  0.38285439     0.37430
H1485       H  0.92196285  0.92859640  0.46220490     0.43550
H1486       H  0.93039798  0.91824067  0.52779546     0.39960
H1487       H  0.58298908  0.57981459  0.43075784     0.44880
H1488       H  0.95173126  0.97510550  0.37718939     0.43600
H1489       H  0.92309685  0.92437426  0.56610440     0.43740
H1490       H  0.54667058  0.54223785  0.62167961     0.44100
C1491       C  0.99529437  0.72689289  0.38169339     0.03650
C1492       C  0.00057244  0.75655251  0.39716363    -0.12500
C1493       C  0.00510565  0.78338254  0.37742626     0.01150
C1494       C  0.00260932  0.78087087  0.34209478    -0.11030
C1495       C  0.99601594  0.75192559  0.32632700     0.03640
C1496       C  0.99356659  0.72494735  0.34610859    -0.10450
H1497       H  0.00037586  0.75906248  0.42443611     0.09240
H1498       H  0.00502541  0.80172381  0.32684075     0.06760
H1499       H  0.98948939  0.70248017  0.33361222     0.06610
C1500       C  0.71976078  0.50628661  0.37173157     0.03650
C1501       C  0.74796600  0.51453033  0.38992681    -0.12500
C1502       C  0.77560292  0.52428517  0.37268282     0.01150
C1503       C  0.77424044  0.52601228  0.33720769    -0.11030
C1504       C  0.74754246  0.51529938  0.31897427     0.03640
C1505       C  0.72072171  0.50488705  0.33622461    -0.10450
H1506       H  0.74826760  0.51371216  0.41726660     0.09240
H1507       H  0.79444144  0.53493996  0.32340692     0.06760
H1508       H  0.70010921  0.49657464  0.32180099     0.06610
C1509       C  0.72271091  0.49773126  0.62767428     0.03650
C1510       C  0.75154786  0.50281959  0.61059103    -0.12500
C1511       C  0.77891129  0.51378261  0.62838519     0.01150
C1512       C  0.77719919  0.51837421  0.66359247    -0.11030
C1513       C  0.74907403  0.51198368  0.68103879     0.03640
C1514       C  0.72189468  0.50170975  0.66299782    -0.10450
H1515       H  0.75224736  0.49928619  0.58344868     0.09240
H1516       H  0.79777819  0.52727266  0.67764632     0.06760
H1517       H  0.69975496  0.49763078  0.67632004     0.06610
C1518       C  0.99057019  0.73043612  0.62023563     0.03650
C1519       C  0.99934103  0.75759246  0.60300444    -0.12500
C1520       C  0.00106199  0.78703308  0.61994021     0.01150
C1521       C  0.99403716  0.78827615  0.65484912    -0.11030
C1522       C  0.98754511  0.76064502  0.67282380     0.03640
C1523       C  0.98531178  0.73206455  0.65505411    -0.10450
H1524       H  0.00519562  0.75543692  0.57648574     0.09240
H1525       H  0.99366385  0.81060933  0.66830637     0.06760
H1526       H  0.98029695  0.71063158  0.66849996     0.06610
C1527       C  0.75035862  0.99525071  0.11846756     0.03650
C1528       C  0.74427452  0.52381363  0.10207285    -0.12500
C1529       C  0.74175919  0.55212523  0.12075588     0.01150
C1530       C  0.74429994  0.55121108  0.15621221    -0.11030
C1531       C  0.74802024  0.52235421  0.17299711     0.03640
C1532       C  0.75168197  0.99452502  0.15378333    -0.10450
H1533       H  0.74142144  0.52390269  0.07480055     0.09240
H1534       H  0.74288611  0.57295366  0.17079186     0.06760
H1535       H  0.75440990  0.97202806  0.16624600     0.06610
O1536       O  0.72768743  0.85196539  0.93657176    -0.74770
O1537       O  0.77409670  0.86153157  0.96585927    -0.53680
C1538       C  0.75158660  0.86947178  0.94471360     0.78960
O1539       O  0.65600236  0.77741782  0.06553035    -0.59370
O1540       O  0.64882168  0.73033971  0.03860166    -0.52400
C1541       C  0.64047571  0.75192803  0.06023717     0.70970
O1542       O  0.72464586  0.85664330  0.05909265    -0.73930
O1543       O  0.77382317  0.86273787  0.03557410    -0.54500
C1544       C  0.74962161  0.87293302  0.05285687     0.76970
O1545       O  0.65505641  0.77687027  0.93309951    -0.59080
O1546       O  0.64718435  0.73131967  0.96165368    -0.52200
C1547       C  0.63848744  0.75261877  0.94018205     0.73570
Zr1548     Zr  0.70506063  0.80140954  0.94897034     2.54710
O1549       O  0.66246451  0.84102427  0.94319687    -0.79640
O1550       O  0.71091160  0.79591716  0.88799321    -0.93060
Zr1551     Zr  0.70374395  0.80438139  0.04871910     2.64680
O1552       O  0.65869579  0.84175790  0.04923669    -0.98010
O1553       O  0.70975305  0.80584364  0.11005300    -0.80070
O1554       O  0.72540840  0.82505313  0.99905513    -0.83430
O1555       O  0.68202105  0.78155479  0.99862858    -2.18140
O1556       O  0.75184324  0.68595931  0.93925726    -0.66820
O1557       O  0.70319940  0.67908433  0.96423130    -0.51390
C1558       C  0.72712723  0.66950831  0.94604882     0.71950
O1559       O  0.82330763  0.76144717  0.06306515    -0.59730
O1560       O  0.82976923  0.80895276  0.03760111    -0.51710
C1561       C  0.83954640  0.78601521  0.05645618     0.73750
O1562       O  0.74743520  0.68961693  0.06598569    -0.71130
O1563       O  0.70105185  0.68061072  0.03582967    -0.49800
C1564       C  0.72317067  0.67272295  0.05740926     0.75130
O1565       O  0.82249533  0.76313435  0.93681174    -0.66450
O1566       O  0.82870343  0.81007775  0.96500825    -0.53650
C1567       C  0.83797520  0.78831449  0.94416551     0.73520
Zr1568     Zr  0.77292853  0.73775378  0.95180199     2.77540
O1569       O  0.81915597  0.70180046  0.95051937    -0.97200
O1570       O  0.76733590  0.73898723  0.89047525    -0.78020
Zr1571     Zr  0.77071892  0.73997320  0.05218304     2.70070
O1572       O  0.81112481  0.69895595  0.06234985    -0.79270
O1573       O  0.76445803  0.74963158  0.11253655    -0.98360
Zr1574     Zr  0.78190821  0.81515579  0.00125917     2.21500
Zr1575     Zr  0.69418460  0.72634617  0.99955607     2.11130
O1576       O  0.75100052  0.71686624  0.00158420    -2.47040
O1577       O  0.79371607  0.76005821  0.00251983    -0.79060
O1578       O  0.71651207  0.74666190  0.94893027    -0.71260
O1579       O  0.75993417  0.79489782  0.05205234    -2.32220
O1580       O  0.76127921  0.79236216  0.94988675    -2.28430
O1581       O  0.71466948  0.74953818  0.05077202    -0.73020
H1582       H  0.65904070  0.78526855  0.99818943     0.78980
H1583       H  0.76927748  0.80501490  0.07179766     0.80060
H1584       H  0.75589293  0.69463718  0.00238169     0.82290
H1585       H  0.77085606  0.80165667  0.93034621     0.79900
H1586       H  0.72730161  0.82083288  0.11482741     0.42930
H1587       H  0.74318124  0.74085958  0.11775576     0.41900
H1588       H  0.81432020  0.68884629  0.03992434     0.41580
H1589       H  0.81832159  0.69022458  0.97203663     0.39510
H1590       H  0.74521883  0.73163892  0.88570805     0.42650
H1591       H  0.72970245  0.80888157  0.88254859     0.37430
H1592       H  0.66021584  0.85013117  0.96623078     0.43550
H1593       H  0.64179975  0.83207233  0.03479424     0.39960
H1594       H  0.81414819  0.68596795  0.93270452     0.44880
H1595       H  0.69222239  0.80766946  0.87842028     0.43600
H1596       H  0.65021639  0.84098528  0.07247080     0.43740
H1597       H  0.78015127  0.73501185  0.12335377     0.44100
C1598       C  0.95989693  0.76255350  0.12582208     0.03650
C1599       C  0.95883829  0.75824859  0.16105787    -0.12500
C1600       C  0.98717345  0.75201449  0.17996151     0.01150
C1601       C  0.51656715  0.75041349  0.16298765    -0.11030
C1602       C  0.51784357  0.75293342  0.12778276     0.03640
C1603       C  0.98957537  0.75959138  0.10933711    -0.10450
H1604       H  0.93586116  0.75953655  0.17361859     0.09240
H1605       H  0.53879910  0.74709514  0.17718933     0.06760
H1606       H  0.99080024  0.76299209  0.08228037     0.06610
C1607       C  0.74428048  0.99121088  0.88072074     0.03650
C1608       C  0.74579082  0.99078364  0.84538657    -0.12500
C1609       C  0.74401111  0.51897121  0.82717536     0.01150
C1610       C  0.73857541  0.54751013  0.84482460    -0.11030
C1611       C  0.73581484  0.54789635  0.88014380     0.03640
C1612       C  0.73957387  0.51977921  0.89807892    -0.10450
H1613       H  0.74844355  0.96841502  0.83212994     0.09240
H1614       H  0.73707591  0.56952019  0.83127163     0.06760
H1615       H  0.73800533  0.52002703  0.92541714     0.06610
C1616       C  0.95701311  0.77097431  0.87303156     0.03650
C1617       C  0.98772774  0.77007471  0.88861701    -0.12500
C1618       C  0.51484038  0.75914041  0.87095965     0.01150
C1619       C  0.51151955  0.75130281  0.83662932    -0.11030
C1620       C  0.98225928  0.75625470  0.81939697     0.03640
C1621       C  0.95480234  0.76470741  0.83788980    -0.10450
H1622       H  0.99074569  0.77791349  0.91457976     0.09240
H1623       H  0.53224910  0.74285453  0.82268527     0.06760
H1624       H  0.93198254  0.76678676  0.82457220     0.06610
C1625       C  0.75693173  0.58845528  0.91874600    -0.11750
C1626       C  0.73124025  0.57798987  0.89869209     0.05260
C1627       C  0.70288349  0.59679224  0.89583505    -0.07040
C1628       C  0.70143880  0.62604678  0.91307749    -0.07780
C1629       C  0.72764824  0.63689812  0.93245105    -0.02330
C1630       C  0.75575038  0.61763018  0.93550212     0.04480
N1631       N  0.78336709  0.62716166  0.95528239     0.66990
H1632       H  0.77843791  0.57380391  0.92093305     0.15890
H1633       H  0.68011694  0.64088927  0.91062009     0.15600
N1634       N  0.67566195  0.58682394  0.87563583     0.74700
O1635       O  0.81119455  0.61752436  0.94740151    -0.38750
O1636       O  0.77986795  0.64214150  0.98272308    -0.38700
O1637       O  0.66939298  0.55796236  0.87200556    -0.39400
O1638       O  0.65628755  0.60699760  0.86340275    -0.39470
C1639       C  0.72161986  0.91258592  0.91590810    -0.11750
C1640       C  0.75131046  0.90122135  0.92896987     0.05260
C1641       C  0.77860292  0.92072653  0.92714064    -0.07040
C1642       C  0.77527233  0.95071142  0.91259696    -0.07780
C1643       C  0.74567555  0.96134237  0.89920633    -0.02330
C1644       C  0.71841333  0.94217592  0.90100893     0.04480
N1645       N  0.68743275  0.95211752  0.88773327     0.66990
H1646       H  0.70023776  0.89847811  0.91770650     0.15890
H1647       H  0.79624368  0.96537539  0.91040481     0.15600
N1648       N  0.80996284  0.91023117  0.93824342     0.74700
O1649       O  0.66747839  0.93190534  0.87738828    -0.38750
O1650       O  0.67868638  0.98071028  0.88901266    -0.38700
O1651       O  0.82118168  0.88412870  0.92785363    -0.39400
O1652       O  0.82860969  0.92927901  0.95309453    -0.39470
C1653       C  0.89314495  0.76225473  0.05895099    -0.11750
C1654       C  0.87227204  0.78594052  0.07113025     0.05260
C1655       C  0.88065316  0.80297010  0.10098492    -0.07040
C1656       C  0.90992550  0.79525125  0.11766510    -0.07780
C1657       C  0.92999106  0.77039757  0.10631421    -0.02330
C1658       C  0.92130922  0.75364250  0.07654734     0.04480
N1659       N  0.93905754  0.72614117  0.06550935     0.66990
H1660       H  0.88598450  0.74846415  0.03690235     0.15890
H1661       H  0.91680252  0.80809313  0.14040887     0.15600
N1662       N  0.85975237  0.82695713  0.11554783     0.74700
O1663       O  0.94788016  0.70561638  0.08665425    -0.38750
O1664       O  0.94129510  0.71979553  0.03435847    -0.38700
O1665       O  0.83060816  0.82971348  0.10653462    -0.39400
O1666       O  0.87014457  0.84492695  0.13879385    -0.39470
C1667       C  0.58623940  0.72798494  0.06930768    -0.11750
C1668       C  0.61046604  0.74875406  0.08012650     0.05260
C1669       C  0.60441677  0.76875011  0.10851344    -0.07040
C1670       C  0.57384356  0.77006116  0.12253719    -0.07780
C1671       C  0.54938938  0.75030386  0.11096549    -0.02330
C1672       C  0.55593026  0.72803712  0.08491307     0.04480
N1673       N  0.53276156  0.70467770  0.07511874     0.66990
H1674       H  0.59094265  0.71154836  0.04875697     0.15890
H1675       H  0.56932384  0.78624310  0.14342213     0.15600
N1676       N  0.62935454  0.78682256  0.12457192     0.74700
O1677       O  0.53198383  0.69392747  0.04523061    -0.38750
O1678       O  0.51609817  0.69162738  0.09724408    -0.38700
O1679       O  0.62377137  0.81489130  0.13396799    -0.39400
O1680       O  0.65481078  0.77310827  0.13467149    -0.39470
C1681       C  0.89558131  0.77666178  0.94434757    -0.11750
C1682       C  0.86932170  0.79101354  0.92792119     0.05260
C1683       C  0.87211529  0.80037053  0.89391234    -0.07040
C1684       C  0.90165390  0.79535711  0.87757630    -0.07780
C1685       C  0.92746651  0.77882229  0.89309270    -0.02330
C1686       C  0.92398773  0.76931090  0.92715714     0.04480
N1687       N  0.94750709  0.74972567  0.94391178     0.66990
H1688       H  0.89281476  0.76821646  0.96990278     0.15890
H1689       H  0.90411072  0.80390912  0.85211918     0.15600
N1690       N  0.84514977  0.81344903  0.87507342     0.74700
O1691       O  0.95630118  0.75622281  0.97383868    -0.38750
O1692       O  0.95607868  0.72373708  0.93074842    -0.38700
O1693       O  0.82136270  0.82582803  0.88994149    -0.39400
O1694       O  0.84516182  0.81300357  0.84313954    -0.39470
C1695       C  0.60482752  0.76302695  0.88941933    -0.11750
C1696       C  0.60703587  0.75061191  0.92215847     0.05260
C1697       C  0.57866582  0.74078624  0.93791099    -0.07040
C1698       C  0.54913319  0.74286235  0.92029461    -0.07780
C1699       C  0.54683813  0.75654631  0.88813976    -0.02330
C1700       C  0.57516479  0.76728534  0.87285091     0.04480
N1701       N  0.57411883  0.78469876  0.84191426     0.66990
H1702       H  0.62628161  0.77144499  0.87739374     0.15890
H1703       H  0.52754791  0.73494455  0.93243492     0.15600
N1704       N  0.57880313  0.73161674  0.97263777     0.74700
O1705       O  0.55412690  0.80713271  0.83828488    -0.38750
O1706       O  0.59603472  0.78081825  0.82040866    -0.38700
O1707       O  0.59083739  0.74968746  0.99484354    -0.39400
O1708       O  0.56149844  0.70917574  0.98177078    -0.39470
C1709       C  0.74659292  0.61984244  0.05918141    -0.11750
C1710       C  0.72314656  0.64083255  0.07155003     0.05260
C1711       C  0.70519281  0.63263994  0.10017236    -0.07040
C1712       C  0.71164268  0.60334430  0.11550181    -0.07780
C1713       C  0.73578011  0.58259475  0.10340888    -0.02330
C1714       C  0.75351359  0.59116810  0.07482353     0.04480
N1715       N  0.78005423  0.57229973  0.06269710     0.66990
H1716       H  0.76128223  0.62683284  0.03838052     0.15890
H1717       H  0.69773782  0.59660603  0.13713881     0.15600
N1718       N  0.68149891  0.65380668  0.11471813     0.74700
O1719       O  0.78518948  0.57009430  0.03135896    -0.38750
O1720       O  0.80091635  0.56160434  0.08320338    -0.38700
O1721       O  0.66786512  0.67491906  0.09721252    -0.39400
O1722       O  0.67280126  0.65041236  0.14490265    -0.39470
C1723       C  0.77953393  0.92027792  0.07382278    -0.11750
C1724       C  0.75001409  0.90560838  0.06693589     0.05260
C1725       C  0.72107903  0.92189506  0.07526763    -0.07040
C1726       C  0.72236181  0.95121063  0.09151405    -0.07780
C1727       C  0.75168118  0.96544782  0.09901405    -0.02330
C1728       C  0.78090315  0.95018574  0.08972303     0.04480
N1729       N  0.81185987  0.96416472  0.09642584     0.66990
H1730       H  0.80169301  0.90807374  0.06726504     0.15890
H1731       H  0.70008915  0.96317674  0.09830541     0.15600
N1732       N  0.69007888  0.90956791  0.06662463     0.74700
O1733       O  0.83724896  0.94750250  0.09503075    -0.38650
O1734       O  0.81440521  0.99343659  0.10149270    -0.38700
O1735       O  0.66822426  0.90938539  0.08847145    -0.39400
O1736       O  0.68297160  0.90384092  0.03605255    -0.39470
C1737       C  0.96063771  0.74343603  0.72587596    -0.11750
C1738       C  0.98497691  0.76075648  0.71042436     0.05260
C1739       C  0.50811023  0.77582532  0.73119186    -0.07040
C1740       C  0.50552655  0.77468070  0.76628967    -0.07780
C1741       C  0.98202088  0.75664134  0.78181239    -0.02330
C1742       C  0.95948229  0.74024213  0.76129627     0.04480
N1743       N  0.93674420  0.71902864  0.77555812     0.66990
H1744       H  0.94322104  0.73119976  0.71011540     0.15890
H1745       H  0.52314604  0.78697986  0.78171871     0.15600
N1746       N  0.53619723  0.78958719  0.71731466     0.74700
O1747       O  0.91081455  0.71299706  0.75994320    -0.38750
O1748       O  0.94429287  0.70304777  0.80126414    -0.38700
O1749       O  0.04669746  0.81513772  0.72949350    -0.39400
O1750       O  0.55409940  0.77305362  0.69838970    -0.39470
C1751       C  0.72500007  0.53613144  0.77018726    -0.11750
C1752       C  0.74707709  0.51846523  0.78973158     0.05260
C1753       C  0.77099971  0.00006115  0.77312234    -0.07040
C1754       C  0.77080831  0.99832726  0.73769267    -0.07780
C1755       C  0.74848633  0.51567439  0.71831269    -0.02330
C1756       C  0.72602531  0.53569841  0.73474115     0.04480
N1757       N  0.70537603  0.55680999  0.71598998     0.66990
H1758       H  0.70700244  0.55070471  0.78263678     0.15890
H1759       H  0.78860053  0.98365130  0.72501748     0.15600
N1760       N  0.79622226  0.98392413  0.79157111     0.74700
O1761       O  0.67790267  0.56427580  0.72701190    -0.38750
O1762       O  0.71651931  0.57201277  0.69168218    -0.38700
O1763       O  0.80735021  0.95793387  0.78068704    -0.39400
O1764       O  0.81019931  0.99736978  0.81622418    -0.39470
C1765       C  0.77054116  0.00199042  0.22729207    -0.11750
C1766       C  0.74738938  0.52083393  0.21052903     0.05260
C1767       C  0.72380120  0.53713977  0.22981313    -0.07040
C1768       C  0.72457216  0.53478464  0.26511225    -0.07780
C1769       C  0.74749250  0.51574123  0.28165873    -0.02330
C1770       C  0.77053901  0.99862369  0.26255500     0.04480
N1771       N  0.79329922  0.97714552  0.27821774     0.66990
H1772       H  0.78849630  0.98933063  0.21264839     0.15890
H1773       H  0.70677116  0.54758743  0.27986534     0.15600
N1774       N  0.69823740  0.55514665  0.21415203     0.74700
O1775       O  0.81949829  0.97035435  0.26387422    -0.38750
O1776       O  0.78578605  0.96198499  0.30413400    -0.38700
O1777       O  0.68238392  0.54365038  0.18961864    -0.39400
O1778       O  0.68870179  0.58071505  0.22755377    -0.39470
C1779       C  0.50962764  0.72866776  0.27029224    -0.11750
C1780       C  0.99090457  0.75004011  0.28914037     0.05260
C1781       C  0.96817406  0.76963778  0.27220326    -0.07040
C1782       C  0.96716434  0.76945705  0.23666031    -0.07780
C1783       C  0.98670784  0.74879767  0.21756223    -0.02330
C1784       C  0.50714053  0.72705861  0.23490347     0.04480
N1785       N  0.52496738  0.70282487  0.21722444     0.66990
H1786       H  0.52623006  0.71290575  0.28332876     0.15890
H1787       H  0.95104964  0.78578014  0.22382320     0.15600
N1788       N  0.94546304  0.78906330  0.29055576     0.74700
O1789       O  0.55256156  0.69438923  0.22774292    -0.38750
O1790       O  0.51198166  0.68764402  0.19314612    -0.38700
O1791       O  0.93379091  0.77954237  0.31783513    -0.39400
O1792       O  0.93365222  0.81364075  0.27732728    -0.39470
C1793       C  0.49773719  0.81926265  0.56705544    -0.11750
C1794       C  0.00883498  0.81630034  0.60072868     0.05260
C1795       C  0.52586508  0.84190237  0.61544919    -0.07040
C1796       C  0.52859181  0.87014532  0.59775782    -0.07780
C1797       C  0.51652219  0.87316052  0.56478426    -0.02330
C1798       C  0.50180626  0.84702532  0.54870738     0.04480
N1799       N  0.49030765  0.84812575  0.51421407     0.66990
H1800       H  0.48436775  0.80037310  0.55513292     0.15890
H1801       H  0.54035255  0.89001401  0.60987468     0.15600
N1802       N  0.04200030  0.83927253  0.64748708     0.74700
O1803       O  0.49121406  0.82356076  0.49588452    -0.38750
O1804       O  0.97667621  0.87256620  0.50275504    -0.38700
O1805       O  0.56373543  0.81851611  0.65125911    -0.39400
O1806       O  0.03932692  0.86115399  0.66923564    -0.39470
C1807       C  0.96627306  0.66154686  0.56280382    -0.11750
C1808       C  0.98691686  0.63758474  0.57512233     0.05260
C1809       C  0.50884595  0.64507727  0.60178594    -0.07040
C1810       C  0.51002872  0.67575157  0.61469431    -0.07780
C1811       C  0.98913673  0.69938421  0.60291602    -0.02330
C1812       C  0.96670986  0.69232297  0.57669165     0.04480
N1813       N  0.94377417  0.71549570  0.56456894     0.66990
H1814       H  0.94944491  0.65620614  0.54245055     0.15890
H1815       H  0.52689814  0.68101026  0.63508832     0.15600
N1816       N  0.52917418  0.62166914  0.61732075     0.74700
O1817       O  0.93270144  0.71355485  0.53473591    -0.38750
O1818       O  0.93187009  0.73588406  0.58446591    -0.38700
O1819       O  0.55882688  0.62672825  0.62151465    -0.39400
O1820       O  0.51664768  0.59896095  0.63235213    -0.39470
C1821       C  0.53581437  0.85446173  0.42827131    -0.11750
C1822       C  0.51136335  0.87692232  0.42130022     0.05260
C1823       C  0.98540545  0.86773757  0.39960226    -0.07040
C1824       C  0.98424193  0.83713781  0.38651566    -0.07780
C1825       C  0.00855401  0.81500803  0.39327161    -0.02330
C1826       C  0.53504031  0.82372928  0.41410664     0.04480
N1827       N  0.56161306  0.80230586  0.42026268     0.66990
H1828       H  0.55587526  0.86095460  0.44453495     0.15890
H1829       H  0.96405839  0.83062659  0.37034037     0.15600
N1830       N  0.95991775  0.88901498  0.38996547     0.74700
O1831       O  0.57853682  0.80500189  0.44687222    -0.38750
O1832       O  0.57059070  0.78306336  0.39756916    -0.38700
O1833       O  0.96557482  0.91091588  0.36970622    -0.39400
O1834       O  0.93110797  0.88186989  0.39549167    -0.39470
C1835       C  0.50299696  0.66275259  0.44864824    -0.11750
C1836       C  0.98088802  0.64063991  0.43633996     0.05260
C1837       C  0.96229023  0.64745932  0.40709918    -0.07040
C1838       C  0.96657273  0.67640246  0.39100538    -0.07780
C1839       C  0.99008355  0.69797025  0.40206659    -0.02330
C1840       C  0.50839935  0.69090919  0.43158219     0.04480
N1841       N  0.53431345  0.71046394  0.44309613     0.66990
H1842       H  0.51800748  0.65691963  0.47039855     0.15890
H1843       H  0.95167767  0.68184653  0.36911000     0.15600
N1844       N  0.94060325  0.62483436  0.39214473     0.74700
O1845       O  0.53862729  0.71548135  0.47435291    -0.38750
O1846       O  0.55569994  0.71856136  0.42274025    -0.38700
O1847       O  0.92619696  0.60536122  0.41017109    -0.39400
O1848       O  0.93448703  0.62527890  0.36078478    -0.39470
C1849       C  0.63797014  0.51155465  0.59609178    -0.11750
C1850       C  0.63138501  0.98456766  0.57596649     0.05260
C1851       C  0.65590522  0.96098435  0.57320428    -0.07040
C1852       C  0.68617624  0.96601887  0.58925512    -0.07780
C1853       C  0.69205424  0.49340329  0.60868141    -0.02330
C1854       C  0.66759225  0.51637254  0.61177832     0.04480
N1855       N  0.67282961  0.54555864  0.62967706     0.66990
H1856       H  0.62033905  0.53039716  0.59890903     0.15890
H1857       H  0.70485897  0.94801365  0.58763786     0.15600
N1858       N  0.65038808  0.93153467  0.55591849     0.74700
O1859       O  0.69710610  0.56183293  0.62323930    -0.38750
O1860       O  0.65105498  0.55724448  0.64814722    -0.38700
O1861       O  0.62483348  0.91671564  0.56095605    -0.39400
O1862       O  0.67334198  0.91741242  0.54127839    -0.39470
C1863       C  0.84140801  0.53800867  0.56369379    -0.11750
C1864       C  0.86983006  0.52662647  0.57913675     0.05260
C1865       C  0.86836191  0.51359421  0.61182064    -0.07040
C1866       C  0.83848624  0.50923634  0.62663749    -0.07780
C1867       C  0.80982433  0.51973737  0.61104933    -0.02330
C1868       C  0.81151900  0.53549159  0.57976304     0.04480
N1869       N  0.78341576  0.54950593  0.56438026     0.66990
H1870       H  0.84238772  0.54851054  0.53890526     0.15890
H1871       H  0.83773911  0.49761674  0.65082850     0.15600
N1872       N  0.89708168  0.50523512  0.63055029     0.74700
O1873       O  0.76466154  0.56672866  0.58165465    -0.38750
O1874       O  0.77840033  0.54644076  0.53300285    -0.38700
O1875       O  0.92071633  0.52357806  0.63117515    -0.39400
O1876       O  0.89736917  0.98185286  0.64997596    -0.39470
C1877       C  0.63040392  0.50566712  0.39133459    -0.11750
C1878       C  0.62947863  0.98842655  0.42141749     0.05260
C1879       C  0.65875857  0.97598030  0.43475590    -0.07040
C1880       C  0.68791012  0.98194313  0.41825291    -0.07780
C1881       C  0.68869462  0.50049995  0.38903113    -0.02330
C1882       C  0.65933717  0.51298276  0.37596073     0.04480
N1883       N  0.65848155  0.53517991  0.34877453     0.66990
H1884       H  0.60836997  0.51577922  0.38090075     0.15890
H1885       H  0.71011581  0.97200062  0.42840898     0.15600
N1886       N  0.65978631  0.95871814  0.46566247     0.74700
O1887       O  0.63632019  0.53405421  0.32664735    -0.38750
O1888       O  0.67706128  0.55844560  0.34942482    -0.38700
O1889       O  0.64441375  0.93343453  0.46785435    -0.39400
O1890       O  0.68071444  0.96524500  0.48799984    -0.39470
C1891       C  0.84052508  0.54709248  0.43843836    -0.11750
C1892       C  0.86811020  0.53437772  0.42288633     0.05260
C1893       C  0.86541816  0.52233128  0.38952876    -0.07040
C1894       C  0.83503825  0.51855356  0.37482536    -0.07780
C1895       C  0.80702020  0.53014195  0.39043925    -0.02330
C1896       C  0.81011602  0.54643640  0.42189520     0.04480
N1897       N  0.78337535  0.56341065  0.43652775     0.66990
H1898       H  0.84271540  0.55753390  0.46347987     0.15890
H1899       H  0.83349557  0.50667240  0.35049101     0.15600
N1900       N  0.89341649  0.51483826  0.36984379     0.74700
O1901       O  0.78291106  0.56896872  0.46792290    -0.38750
O1902       O  0.76292154  0.57718649  0.41775714    -0.38700
O1903       O  0.89269421  0.99287385  0.34802722    -0.39400
O1904       O  0.91693771  0.53332440  0.37036560    -0.39470
loop_ 
_geom_bond_atom_site_label_1 
_geom_bond_atom_site_label_2 
_geom_bond_distance 
_geom_bond_site_symmetry_2 
_ccdc_geom_bond_type 
O1          Zr13   2.424       .  S
O1          C479   1.286       .  A
O2          Zr39   2.445       .  S
O2            C3   1.290       .  A
C3          O477   1.286       .  A
C3          C464   1.485       .  S
O4          Zr16   2.427       .  S
O4          C958   1.285       .  A
O5          Zr40   2.452       .  S
O5            C6   1.292       .  A
C6          O956   1.285   1_455  A
C6          C369   1.472       .  S
O7          Zr16   2.418       .  S
O7          C485   1.285       .  A
O8          Zr39   2.448       .  S
O8            C9   1.291       .  A
C9          O483   1.285   1_545  A
C9          C436   1.481       .  S
O10         Zr13   2.416       .  S
O10         C964   1.282       .  A
O11         Zr40   2.465       .  S
O11          C12   1.295       .  A
C12         O962   1.282   1_455  A
C12         C394   1.500       .  S
Zr13         O14   2.433       .  S
Zr13         O15   2.433       .  S
Zr13         O19   2.365       .  S
Zr13         O20   2.360       .  S
Zr13        O995   2.369       .  S
Zr13        O521   2.362       .  S
O14          H57   0.990       .  S
O15          H56   0.989       .  S
O15          H60   0.989       .  S
Zr16         O17   2.436       .  S
Zr16         O18   2.434       .  S
Zr16         O20   2.356       .  S
Zr16         O19   2.367       .  S
Zr16        O520   2.370       .  S
Zr16        O998   2.369       .  S
O17          H58   0.990       .  S
O17          H61   0.990       .  S
O18          H51   0.989       .  S
O19        Zr515   2.386       .  S
O20        Zr992   2.393       .  S
O20          H47   0.962       .  S
O21         Zr33   2.421       .  S
O21         C499   1.286   1_545  A
O22         Zr40   2.454       .  S
O22          C23   1.291       .  A
C23         O497   1.286       .  A
C23         C450   1.493       .  S
O24         Zr36   2.417       .  S
O24         C978   1.283   1_455  A
O25         Zr39   2.447       .  S
O25          C26   1.291       .  A
C26         O976   1.283       .  A
C26         C380   1.492       .  S
O27         Zr36   2.395       .  S
O27         C505   1.280   1_545  A
O28         Zr40   2.471       .  S
O28          C29   1.293       .  A
C29         O503   1.280       .  A
C29         C422   1.504       .  S
O30         Zr33   2.429       .  S
O30         C984   1.286   1_455  A
O31         Zr39   2.438       .  S
O31          C32   1.289       .  A
C32         O982   1.286       .  A
C32         C408   1.471       .  S
Zr33         O34   2.436       .  S
Zr33         O35   2.435       .  S
Zr33         O41   2.366       .  S
Zr33         O42   2.360       .  S
Zr33        O997   2.366   1_455  S
Zr33        O519   2.371   1_545  S
O34          H54   0.990       .  S
O34          H59   0.990       .  S
O35          H55   0.990       .  S
Zr36         O37   2.434       .  S
Zr36         O38   2.433       .  S
Zr36         O42   2.355       .  S
Zr36         O41   2.364       .  S
Zr36        O522   2.365   1_545  S
Zr36        O996   2.358   1_455  S
O37          H53   0.990       .  S
O38          H52   0.990       .  S
O38          H62   0.990       .  S
Zr39         O44   2.396       .  S
Zr39         O45   2.396       .  S
Zr39        O495   2.386   1_545  S
Zr39        O994   2.381       .  S
Zr40         O43   2.400       .  S
Zr40         O46   2.399       .  S
Zr40        O972   2.393   1_455  S
Zr40        O517   2.396       .  S
O41        Zr516   2.396   1_545  S
O41          H49   0.966       .  S
O42        Zr991   2.381   1_455  S
O43        Zr965   2.369   1_455  S
O43        Zr509   2.371       .  S
O44        Zr492   2.370   1_545  S
O44        Zr988   2.358       .  S
O44          H48   0.966       .  S
O45        Zr489   2.362   1_545  S
O45        Zr985   2.366       .  S
O45          H50   0.966       .  S
O46        Zr968   2.369   1_455  S
O46        Zr512   2.365       .  S
C63         C411   1.497       .  S
C63          C64   1.412       .  A
C63          C68   1.410       .  A
C64          C65   1.405       .  A
C64          H69   1.083       .  S
C65         C397   1.482       .  S
C65          C66   1.403       .  A
C66          C67   1.400       .  A
C66          H70   1.084       .  S
C67         C352   1.485       .  S
C67          C68   1.401       .  A
C68          H71   1.083       .  S
C72         C453   1.495       .  S
C72          C73   1.413       .  A
C72          C77   1.406       .  A
C73          C74   1.414       .  A
C73          H78   1.082       .  S
C74         C467   1.497       .  S
C74          C75   1.406       .  A
C75          C76   1.394       .  A
C75          H79   1.084       .  S
C76         C341   1.476       .  S
C76          C77   1.396       .  A
C77          H80   1.084   1_545  S
C81         C425   1.483       .  S
C81          C82   1.405   1_565  A
C81          C86   1.406   1_565  A
C82          C83   1.411       .  A
C82          H87   1.083   1_545  S
C83         C439   1.491       .  S
C83          C84   1.406       .  A
C84          C85   1.398       .  A
C84          H88   1.084       .  S
C85         C327   1.481       .  S
C85          C86   1.400       .  A
C86          H89   1.084   1_545  S
C90         C383   1.479       .  S
C90          C91   1.402       .  A
C90          C95   1.398       .  A
C91          C92   1.413       .  A
C91          H96   1.083       .  S
C92         C366   1.506       .  S
C92          C93   1.416       .  A
C93          C94   1.411       .  A
C93          H97   1.081       .  S
C94         C310   1.493       .  S
C94          C95   1.398       .  A
C95          H98   1.084       .  S
C99         C299   1.473       .  S
C99         C104   1.398       .  A
C99         C576   1.400       .  A
C100        C101   1.406       .  A
C100        C575   1.400   1_545  A
C100        H105   1.084       .  S
C101        C285   1.488       .  S
C101        C102   1.406       .  A
C102        C103   1.406       .  A
C102        H106   1.083       .  S
C103        C338   1.487       .  S
C103        C580   1.404   1_545  A
C104        C579   1.404       .  A
C104        H107   1.084       .  S
O108       Zr120   2.415       .  S
O108        C110   1.285       .  A
O109       Zr146   2.445   1_556  S
O109        C110   1.290       .  A
C110        C212   1.492       .  S
O111       Zr123   2.412       .  S
O111        C113   1.282       .  A
O112       Zr147   2.457   1_554  S
O112        C113   1.293       .  A
C113        C240   1.493       .  S
O114       Zr123   2.423       .  S
O114        C116   1.285       .  A
O115       Zr146   2.441       .  S
O115        C116   1.290       .  A
C116        C296   1.488       .  S
O117       Zr120   2.411       .  S
O117        C119   1.283       .  A
O118       Zr147   2.454       .  S
O118        C119   1.292       .  A
C119        C268   1.483       .  S
Zr120       O121   2.434       .  S
Zr120       O122   2.435       .  S
Zr120       O126   2.361       .  S
Zr120       O127   2.368       .  S
Zr120       O150   2.365       .  S
Zr120       O152   2.362       .  S
O121        H164   0.990       .  S
O122        H163   0.990       .  S
O122        H167   0.990       .  S
Zr123       O124   2.436       .  S
Zr123       O125   2.435       .  S
Zr123       O127   2.368   1_554  S
Zr123       O126   2.357   1_554  S
Zr123       O151   2.366       .  S
Zr123       O153   2.367       .  S
O124        H165   0.990       .  S
O124        H168   0.990       .  S
O125        H158   0.990       .  S
O126       Zr146   2.380   1_556  S
O127       Zr147   2.391       .  S
O127        H154   0.966       .  S
O128       Zr140   2.422       .  S
O128        C130   1.284       .  A
O129       Zr147   2.457       .  S
O129        C130   1.293       .  A
C130        C201   1.479       .  S
O131       Zr143   2.412       .  S
O131        C133   1.283       .  A
O132       Zr146   2.451       .  S
O132        C133   1.291       .  A
C133        C226   1.471       .  S
O134       Zr143   2.431       .  S
O134        C136   1.286       .  A
O135       Zr147   2.440   1_554  S
O135        C136   1.289       .  A
C136        C282   1.471       .  S
O137       Zr140   2.424       .  S
O137        C139   1.284       .  A
O138       Zr146   2.438   1_556  S
O138        C139   1.289       .  A
C139        C254   1.468       .  S
Zr140       O141   2.436       .  S
Zr140       O142   2.435       .  S
Zr140       O148   2.369   1_556  S
Zr140       O149   2.365   1_556  S
Zr140       O152   2.363       .  S
Zr140       O150   2.371       .  S
O141        H161   0.989       .  S
O141        H166   0.990       .  S
O142        H162   0.990       .  S
Zr143       O144   2.434       .  S
Zr143       O145   2.434       .  S
Zr143       O149   2.371       .  S
Zr143       O148   2.360       .  S
Zr143       O153   2.359       .  S
Zr143       O151   2.368       .  S
O144        H160   0.990       .  S
O145        H159   0.990       .  S
O145        H169   0.990       .  S
Zr146       O149   2.384       .  S
Zr146       O151   2.394       .  S
Zr146       O152   2.393   1_554  S
Zr147       O148   2.390   1_556  S
Zr147       O150   2.395       .  S
Zr147       O153   2.393   1_556  S
O148        H156   0.963       .  S
O151        H155   0.966       .  S
O152        H157   0.966       .  S
C170        C229   1.489       .  S
C170        C171   1.409       .  A
C170        C175   1.407       .  A
C171        C172   1.410       .  A
C171        H176   1.083       .  S
C172        C355   1.496       .  S
C172       C1125   1.403       .  A
C173        C174   1.400       .  A
C173       C1124   1.403   1_455  A
C173        H177   1.083       .  S
C174        C243   1.481       .  S
C174       C1127   1.401   1_455  A
C175       C1126   1.401       .  A
C175        H178   1.084       .  S
C179        C215   1.472       .  S
C179        C180   1.400       .  A
C179        C660   1.399       .  A
C180        C657   1.405       .  A
C180        H185   1.084       .  S
C181        C324   1.488       .  S
C181        C182   1.407       .  A
C181        C656   1.405   1_545  A
C182        C183   1.403       .  A
C182        H186   1.084       .  S
C183        C198   1.476       .  S
C183        C184   1.402       .  A
C184        C655   1.399   1_545  A
C184        H187   1.084       .  S
C188        C257   1.502       .  S
C188        C189   1.410       .  A
C188        C193   1.414       .  A
C189       C1142   1.404       .  A
C189        H194   1.082       .  S
C190        C271   1.488       .  S
C190        C191   1.399       .  A
C190       C1141   1.404   1_455  A
C191       C1144   1.400   1_455  A
C191        H195   1.084       .  S
C192        C313   1.487       .  S
C192        C193   1.404       .  A
C192       C1143   1.400       .  A
C193        H196   1.081       .  S
C197        C198   1.396       .  A
C197        C202   1.398       .  A
C197        H204   1.084       .  S
C198        C199   1.417       .  A
C199        C200   1.410       .  A
C199        N206   1.442       .  S
C200        C201   1.403       .  A
C200        H205   1.084       .  S
C201        C202   1.420       .  A
C202        N203   1.440       .  S
N203        O207   1.263       .  A
N203        O208   1.260       .  A
N206        O209   1.262       .  A
N206        O210   1.263       .  A
C211        C212   1.412       .  A
C211        C216   1.398       .  A
C211        H218   1.083       .  S
C212        C213   1.418       .  A
C213        C214   1.408       .  A
C213        N220   1.436       .  S
C214        C215   1.403       .  A
C214        H219   1.084       .  S
C215        C216   1.408       .  A
C216        N217   1.443       .  S
N217        O221   1.263       .  A
N217        O222   1.262       .  A
N220        O223   1.262       .  A
N220        O224   1.262       .  A
C225        C226   1.403       .  A
C225        C230   1.400       .  A
C225        H232   1.085       .  S
C226        C227   1.419       .  A
C227        C228   1.412       .  A
C227        N234   1.448       .  S
C228        C229   1.408       .  A
C228        H233   1.083       .  S
C229        C230   1.413       .  A
C230        N231   1.438       .  S
N231        O235   1.262       .  A
N231        O236   1.262       .  A
N234        O237   1.262       .  A
N234        O238   1.263       .  A
C239        C240   1.407       .  A
C239        C244   1.411       .  A
C239        H246   1.082       .  S
C240        C241   1.422       .  A
C241        C242   1.394       .  A
C241        N248   1.435       .  S
C242        C243   1.396       .  A
C242        H247   1.084       .  S
C243        C244   1.416       .  A
C244        N245   1.439       .  S
N245        O249   1.262       .  A
N245        O250   1.262       .  A
N248        O251   1.263       .  A
N248        O252   1.262       .  A
C253        C254   1.398       .  A
C253        C258   1.400       .  A
C253        H260   1.085       .  S
C254        C255   1.414       .  A
C255        C256   1.408       .  A
C255        N262   1.445       .  S
C256        C257   1.411       .  A
C256        H261   1.081       .  S
C257        C258   1.421       .  A
C258        N259   1.434       .  S
N259        O263   1.262       .  A
N259        O264   1.262       .  A
N262        O265   1.262       .  A
N262        O266   1.263       .  A
C267        C268   1.406       .  A
C267        C272   1.399       .  A
C267        H274   1.084       .  S
C268        C269   1.412       .  A
C269        C270   1.405       .  A
C269        N276   1.432       .  S
C270        C271   1.406       .  A
C270        H275   1.084       .  S
C271        C272   1.415       .  A
C272        N273   1.437       .  S
N273        O277   1.263       .  A
N273        O278   1.263       .  A
N276        O279   1.262       .  A
N276        O280   1.262       .  A
C281        C282   1.400       .  A
C281        C286   1.397       .  A
C281        H288   1.079       .  S
C282        C283   1.415       .  A
C283        C284   1.411       .  A
C283        N290   1.444       .  S
C284        C285   1.410       .  A
C284        H289   1.083       .  S
C285        C286   1.413       .  A
C286        N287   1.438       .  S
N287        O291   1.263       .  A
N287        O292   1.262       .  A
N290        O293   1.262       .  A
N290        O294   1.263       .  A
C295        C296   1.406       .  A
C295        C300   1.411       .  A
C295        H302   1.083       .  S
C296        C297   1.419       .  A
C297        C298   1.395       .  A
C297        N304   1.433       .  S
C298        C299   1.395       .  A
C298        H303   1.085       .  S
C299        C300   1.419       .  A
C300        N301   1.445       .  S
N301        O305   1.263       .  A
N301        O306   1.262       .  A
N304        O307   1.263       .  A
N304        O308   1.262       .  A
C309        C310   1.410       .  A
C309        C314   1.411       .  A
C309        H316   1.083       .  S
C310       C1263   1.411       .  A
C311        C312   1.395       .  A
C311       C1262   1.411   1_455  A
C311        N318   1.433       .  S
C312       C1265   1.403   1_455  A
C312        H317   1.083       .  S
C313        C314   1.416       .  A
C313       C1264   1.403       .  A
C314        N315   1.441       .  S
N315        O319   1.263       .  A
N315        O320   1.263       .  A
N318        O322   1.262       .  A
N318       O1273   1.263       .  A
O321       N1270   1.263       .  A
C323        C324   1.406       .  A
C323        C328   1.403       .  A
C323        H330   1.083       .  S
C324        C801   1.419       .  A
C325        C326   1.402       .  A
C325        C800   1.419       .  A
C325        N332   1.439       .  S
C326        C803   1.402       .  A
C326        H331   1.084       .  S
C327        C328   1.413       .  A
C327        C802   1.402   1_545  A
C328        N329   1.437       .  S
N329        O333   1.263       .  A
N329        O334   1.262       .  A
N332        O335   1.263       .  A
N332        O336   1.263       .  A
C337        C342   1.404       .  A
C337        C814   1.406       .  A
C337        H344   1.083       .  S
C338        C339   1.417       .  A
C338        C813   1.406       .  A
C339        C340   1.401       .  A
C339        N346   1.437       .  S
C340        C341   1.401       .  A
C340        H345   1.084       .  S
C341        C818   1.415   1_545  A
C342        C817   1.415       .  A
C342        N343   1.443       .  S
N343        O347   1.263       .  A
N343        O348   1.263       .  A
N346        O349   1.262       .  A
N346        O350   1.263       .  A
C351        C356   1.403       .  A
C351       C1304   1.401   1_455  A
C351        H358   1.084       .  S
C352        C353   1.416       .  A
C352       C1303   1.401       .  A
C353        C354   1.406       .  A
C353        N360   1.442       .  S
C354        C355   1.407       .  A
C354        H359   1.083       .  S
C355       C1308   1.421       .  A
C356       C1307   1.421   1_455  A
C356        N357   1.439       .  S
N357        O361   1.263       .  A
N357        O362   1.263       .  A
N360        O363   1.263       .  A
N360        O364   1.263       .  A
C365        C370   1.406   1_655  A
C365       C1318   1.410   1_655  A
C365        H372   1.082       .  S
C366       C1317   1.410       .  A
C366       C1319   1.420       .  A
C367        C368   1.403       .  A
C367       C1318   1.420       .  A
C367       N1326   1.430       .  S
C368        C369   1.397       .  A
C368        H373   1.084       .  S
C369        C370   1.415       .  A
C370        N371   1.440   1_455  S
N371        O375   1.263       .  A
N371       O1328   1.261       .  A
N374       C1319   1.430       .  S
N374        O378   1.263       .  A
N374       O1329   1.261       .  A
O376       N1323   1.261       .  A
O377       N1326   1.261       .  A
C379        C380   1.408       .  A
C379        C384   1.411       .  A
C379        H386   1.083       .  S
C380       C1333   1.420       .  A
C381        C382   1.394       .  A
C381       C1332   1.420   1_455  A
C381        N388   1.433       .  S
C382       C1335   1.397   1_455  A
C382        H387   1.085       .  S
C383        C384   1.417       .  A
C383       C1334   1.397       .  A
C384        N385   1.441       .  S
N385        O389   1.263       .  A
N385        O390   1.263       .  A
N388        O391   1.263       .  A
N388        O392   1.262       .  A
C393        C394   1.410       .  A
C393        C398   1.414       .  A
C393        H400   1.083       .  S
C394       C1347   1.425   1_455  A
C395        C396   1.393       .  A
C395       C1346   1.425       .  A
C395        N402   1.432       .  S
C396        C397   1.395       .  A
C396        H401   1.085       .  S
C397       C1350   1.417       .  A
C398       C1349   1.417       .  A
C398        N399   1.440       .  S
N399        O403   1.263       .  A
N399        O404   1.262       .  A
N402        O405   1.262       .  A
N402        O406   1.263       .  A
C407        C412   1.403       .  A
C407       C1360   1.402   1_455  A
C407        H414   1.085       .  S
C408        C409   1.413       .  A
C408       C1359   1.402       .  A
C409        C410   1.406       .  A
C409        N416   1.443       .  S
C410        C411   1.411       .  A
C410        H415   1.083       .  S
C411       C1364   1.417       .  A
C412       C1363   1.417   1_455  A
C412        N413   1.435       .  S
N413        O417   1.263       .  A
N413        O418   1.262       .  A
N416        O419   1.262       .  A
N416        O420   1.263       .  A
C421        C426   1.388       .  A
C421        C898   1.415   1_545  A
C421        H428   1.082       .  S
C422        C423   1.422       .  A
C422        C897   1.415       .  A
C423        C424   1.419       .  A
C423        N430   1.437       .  S
C424        C901   1.408       .  A
C424        H429   1.083       .  S
C425        C426   1.404   1_565  A
C425        C900   1.408       .  A
C426        N427   1.437       .  S
N427        O431   1.262       .  A
N427        O432   1.263       .  A
N430        O433   1.262       .  A
N430        O434   1.263       .  A
C435        C436   1.404       .  A
C435        C440   1.410       .  A
C435        H442   1.084       .  S
C436        C437   1.415       .  A
C437        C438   1.396       .  A
C437        N444   1.438       .  S
C438        C439   1.403       .  A
C438        H443   1.083   1_545  S
C439        C440   1.417       .  A
C440        N441   1.434       .  S
N441        O445   1.263       .  A
N441        O446   1.261       .  A
N444        O447   1.263       .  A
N444        O924   1.263   1_545  A
O448        N920   1.263       .  A
C449        C454   1.396       .  A
C449        C926   1.406   1_545  A
C449        H456   1.084       .  S
C450        C451   1.417       .  A
C450        C925   1.406       .  A
C451        C452   1.412       .  A
C451        N458   1.433       .  S
C452        C929   1.408       .  A
C452        H457   1.083       .  S
C453        C454   1.417       .  A
C453        C928   1.408   1_545  A
C454        N455   1.438       .  S
N455        O459   1.263       .  A
N455        O460   1.263       .  A
N458        O461   1.262       .  A
N458        O462   1.262       .  A
C463        C464   1.406       .  A
C463        C468   1.416       .  A
C463        H470   1.083       .  S
C464        C465   1.413       .  A
C465        C466   1.393       .  A
C465        N472   1.439       .  S
C466        C467   1.405       .  A
C466        H471   1.083       .  S
C467        C468   1.421       .  A
C468        N469   1.440       .  S
N469        O473   1.261       .  A
N469        O474   1.263       .  A
N472        O476   1.263       .  A
N472        O951   1.263   1_545  A
O475        N948   1.263       .  A
O477       Zr489   2.424   1_545  S
O478       Zr515   2.445       .  S
O478        C479   1.290       .  A
C479        C940   1.485       .  S
O480       Zr492   2.427       .  S
O480       C1434   1.285       .  A
O481       Zr516   2.452       .  S
O481        C482   1.292       .  A
C482       O1432   1.285   1_455  A
C482        C845   1.472       .  S
O483       Zr492   2.418       .  S
O484       Zr515   2.448       .  S
O484        C485   1.291       .  A
C485        C912   1.481       .  S
O486       Zr489   2.416       .  S
O486       C1440   1.282       .  A
O487       Zr516   2.465       .  S
O487        C488   1.295       .  A
C488       O1438   1.282   1_455  A
C488        C870   1.500       .  S
Zr489       O490   2.433       .  S
Zr489       O491   2.433       .  S
Zr489       O495   2.365       .  S
Zr489       O496   2.360       .  S
Zr489      O1471   2.369       .  S
O490        H533   0.990       .  S
O491        H532   0.989   1_565  S
O491        H536   0.989       .  S
Zr492       O493   2.436       .  S
Zr492       O494   2.434       .  S
Zr492       O496   2.356       .  S
Zr492       O495   2.367       .  S
Zr492      O1474   2.369       .  S
O493        H534   0.990       .  S
O493        H537   0.990       .  S
O494        H527   0.989       .  S
O496      Zr1468   2.393       .  S
O496        H523   0.962       .  S
O497       Zr509   2.421       .  S
O498       Zr516   2.454       .  S
O498        C499   1.291       .  A
C499        C926   1.493       .  S
O500       Zr512   2.417       .  S
O500       C1454   1.283   1_455  A
O501       Zr515   2.447       .  S
O501        C502   1.291       .  A
C502       O1452   1.283       .  A
C502        C856   1.492       .  S
O503       Zr512   2.395       .  S
O504       Zr516   2.471       .  S
O504        C505   1.293       .  A
C505        C898   1.504       .  S
O506       Zr509   2.429       .  S
O506       C1460   1.286   1_455  A
O507       Zr515   2.438       .  S
O507        C508   1.289       .  A
C508       O1458   1.286       .  A
C508        C884   1.471       .  S
Zr509       O510   2.436       .  S
Zr509       O511   2.435       .  S
Zr509       O517   2.366       .  S
Zr509       O518   2.360       .  S
Zr509      O1473   2.366   1_455  S
O510        H530   0.990       .  S
O510        H535   0.990       .  S
O511        H531   0.990       .  S
Zr512       O513   2.434       .  S
Zr512       O514   2.433       .  S
Zr512       O518   2.355       .  S
Zr512       O517   2.364       .  S
Zr512      O1472   2.358   1_455  S
O513        H529   0.990       .  S
O514        H528   0.990       .  S
O514        H538   0.990       .  S
Zr515      O1470   2.381       .  S
Zr515       O520   2.396       .  S
Zr515       O521   2.396       .  S
Zr516      O1448   2.393   1_455  S
Zr516       O519   2.400       .  S
Zr516       O522   2.399       .  S
O517        H525   0.966       .  S
O518      Zr1467   2.381   1_455  S
O519      Zr1441   2.369   1_455  S
O520      Zr1464   2.358       .  S
O520        H524   0.966       .  S
O521      Zr1461   2.366       .  S
O521        H526   0.966       .  S
O522      Zr1444   2.369   1_455  S
C539        C887   1.497       .  S
C539        C540   1.412       .  A
C539        C544   1.410       .  A
C540        C541   1.405       .  A
C540        H545   1.083       .  S
C541        C873   1.482       .  S
C541        C542   1.403       .  A
C542        C543   1.400       .  A
C542        H546   1.084       .  S
C543        C828   1.485       .  S
C543        C544   1.401       .  A
C544        H547   1.083       .  S
C548        C929   1.495       .  S
C548        C549   1.413       .  A
C548        C553   1.406       .  A
C549        C550   1.414       .  A
C549        H554   1.082       .  S
C550        C943   1.497       .  S
C550        C551   1.406       .  A
C551        C552   1.394       .  A
C551        H555   1.084       .  S
C552        C817   1.476       .  S
C552        C553   1.396       .  A
C553        H556   1.084       .  S
C557        C901   1.483       .  S
C557        C558   1.405       .  A
C557        C562   1.406       .  A
C558        C559   1.411       .  A
C558        H563   1.083       .  S
C559        C915   1.491       .  S
C559        C560   1.406       .  A
C560        C561   1.398       .  A
C560        H564   1.084       .  S
C561        C803   1.481       .  S
C561        C562   1.400       .  A
C562        H565   1.084       .  S
C566        C859   1.479       .  S
C566        C567   1.402       .  A
C566        C571   1.398       .  A
C567        C568   1.413       .  A
C567        H572   1.083       .  S
C568        C842   1.506       .  S
C568        C569   1.416       .  A
C569        C570   1.411       .  A
C569        H573   1.081       .  S
C570        C786   1.493       .  S
C570        C571   1.398       .  A
C571        H574   1.084       .  S
C575        C775   1.473       .  S
C575        C580   1.398       .  A
C576        C577   1.406       .  A
C576        H581   1.084       .  S
C577        C761   1.488       .  S
C577        C578   1.406       .  A
C578        C579   1.406       .  A
C578        H582   1.083       .  S
C579        C814   1.487       .  S
C580        H583   1.084       .  S
O584       Zr596   2.415       .  S
O584        C586   1.285       .  A
O585       Zr622   2.445   1_556  S
O585        C586   1.290       .  A
C586        C688   1.492       .  S
O587       Zr599   2.412       .  S
O587        C589   1.282       .  A
O588       Zr623   2.457   1_554  S
O588        C589   1.293       .  A
C589        C716   1.493       .  S
O590       Zr599   2.423       .  S
O590        C592   1.285       .  A
O591       Zr622   2.441       .  S
O591        C592   1.290       .  A
C592        C772   1.488       .  S
O593       Zr596   2.411       .  S
O593        C595   1.283       .  A
O594       Zr623   2.454       .  S
O594        C595   1.292       .  A
C595        C744   1.483       .  S
Zr596       O597   2.434       .  S
Zr596       O598   2.435       .  S
Zr596       O602   2.361       .  S
Zr596       O603   2.368       .  S
Zr596       O626   2.365       .  S
Zr596       O628   2.362       .  S
O597        H640   0.990       .  S
O598        H639   0.990       .  S
O598        H643   0.990       .  S
Zr599       O600   2.436       .  S
Zr599       O601   2.435       .  S
Zr599       O603   2.368   1_554  S
Zr599       O602   2.357   1_554  S
Zr599       O627   2.366       .  S
Zr599       O629   2.367       .  S
O600        H641   0.990       .  S
O600        H644   0.990       .  S
O601        H634   0.990       .  S
O602       Zr622   2.380   1_556  S
O603       Zr623   2.391       .  S
O603        H630   0.966       .  S
O604       Zr616   2.422       .  S
O604        C606   1.284       .  A
O605       Zr623   2.457       .  S
O605        C606   1.293       .  A
C606        C677   1.479       .  S
O607       Zr619   2.412       .  S
O607        C609   1.283       .  A
O608       Zr622   2.451       .  S
O608        C609   1.291       .  A
C609        C702   1.471       .  S
O610       Zr619   2.431       .  S
O610        C612   1.286       .  A
O611       Zr623   2.440   1_554  S
O611        C612   1.289       .  A
C612        C758   1.471       .  S
O613       Zr616   2.424       .  S
O613        C615   1.284       .  A
O614       Zr622   2.438   1_556  S
O614        C615   1.289       .  A
C615        C730   1.468       .  S
Zr616       O617   2.436       .  S
Zr616       O618   2.435       .  S
Zr616       O624   2.369   1_556  S
Zr616       O625   2.365   1_556  S
Zr616       O628   2.363       .  S
Zr616       O626   2.371       .  S
O617        H637   0.989       .  S
O617        H642   0.990       .  S
O618        H638   0.990       .  S
Zr619       O620   2.434       .  S
Zr619       O621   2.434       .  S
Zr619       O625   2.371       .  S
Zr619       O624   2.360       .  S
Zr619       O629   2.359       .  S
Zr619       O627   2.368       .  S
O620        H636   0.990       .  S
O621        H635   0.990       .  S
O621        H645   0.990       .  S
Zr622       O625   2.384       .  S
Zr622       O627   2.394       .  S
Zr622       O628   2.393   1_554  S
Zr623       O624   2.390   1_556  S
Zr623       O626   2.395       .  S
Zr623       O629   2.393   1_556  S
O624        H632   0.963       .  S
O627        H631   0.966       .  S
O628        H633   0.966       .  S
C646        C705   1.489       .  S
C646        C647   1.409       .  A
C646        C651   1.407       .  A
C647        C648   1.410       .  A
C647        H652   1.083       .  S
C648        C831   1.496       .  S
C648       C1601   1.403       .  A
C649       C1600   1.403   1_455  A
C649        C650   1.400       .  A
C649        H653   1.083       .  S
C650        C719   1.481       .  S
C650       C1603   1.401   1_455  A
C651       C1602   1.401       .  A
C651        H654   1.084       .  S
C655        C691   1.472       .  S
C655        C656   1.400       .  A
C656        H661   1.084       .  S
C657        C800   1.488       .  S
C657        C658   1.407       .  A
C658        C659   1.403       .  A
C658        H662   1.084       .  S
C659        C674   1.476       .  S
C659        C660   1.402       .  A
C660        H663   1.084       .  S
C664        C733   1.502       .  S
C664        C665   1.410       .  A
C664        C669   1.414       .  A
C665       C1618   1.404       .  A
C665        H670   1.082       .  S
C666        C747   1.488       .  S
C666       C1617   1.404   1_455  A
C666        C667   1.399       .  A
C667       C1620   1.400   1_455  A
C667        H671   1.084       .  S
C668        C789   1.487       .  S
C668       C1619   1.400       .  A
C668        C669   1.404       .  A
C669        H672   1.081       .  S
C673        C674   1.396       .  A
C673        C678   1.398       .  A
C673        H680   1.084       .  S
C674        C675   1.417       .  A
C675        C676   1.410       .  A
C675        N682   1.442       .  S
C676        C677   1.403       .  A
C676        H681   1.084       .  S
C677        C678   1.420       .  A
C678        N679   1.440       .  S
N679        O683   1.263       .  A
N679        O684   1.260       .  A
N682        O685   1.262       .  A
N682        O686   1.263       .  A
C687        C688   1.412       .  A
C687        C692   1.398       .  A
C687        H694   1.083       .  S
C688        C689   1.418       .  A
C689        C690   1.408       .  A
C689        N696   1.436       .  S
C690        C691   1.403       .  A
C690        H695   1.084       .  S
C691        C692   1.408       .  A
C692        N693   1.443       .  S
N693        O697   1.263       .  A
N693        O698   1.262       .  A
N696        O699   1.262       .  A
N696        O700   1.262       .  A
C701        C702   1.403       .  A
C701        C706   1.400       .  A
C701        H708   1.085       .  S
C702        C703   1.419       .  A
C703        C704   1.412       .  A
C703        N710   1.448       .  S
C704        C705   1.408       .  A
C704        H709   1.083       .  S
C705        C706   1.413       .  A
C706        N707   1.438       .  S
N707        O711   1.262       .  A
N707        O712   1.262       .  A
N710        O713   1.262       .  A
N710        O714   1.263       .  A
C715        C716   1.407       .  A
C715        C720   1.411       .  A
C715        H722   1.082       .  S
C716        C717   1.422       .  A
C717        C718   1.394       .  A
C717        N724   1.435       .  S
C718        C719   1.396       .  A
C718        H723   1.084       .  S
C719        C720   1.416       .  A
C720        N721   1.439       .  S
N721        O725   1.262       .  A
N721        O726   1.262       .  A
N724        O727   1.263       .  A
N724        O728   1.262       .  A
C729        C730   1.398       .  A
C729        C734   1.400       .  A
C729        H736   1.085       .  S
C730        C731   1.414       .  A
C731        C732   1.408       .  A
C731        N738   1.445       .  S
C732        C733   1.411       .  A
C732        H737   1.081       .  S
C733        C734   1.421       .  A
C734        N735   1.434       .  S
N735        O739   1.262       .  A
N735        O740   1.262       .  A
N738        O741   1.262       .  A
N738        O742   1.263       .  A
C743        C744   1.406       .  A
C743        C748   1.399       .  A
C743        H750   1.084       .  S
C744        C745   1.412       .  A
C745        C746   1.405       .  A
C745        N752   1.432       .  S
C746        C747   1.406       .  A
C746        H751   1.084       .  S
C747        C748   1.415       .  A
C748        N749   1.437       .  S
N749        O753   1.263       .  A
N749        O754   1.263       .  A
N752        O755   1.262       .  A
N752        O756   1.262       .  A
C757        C758   1.400       .  A
C757        C762   1.397       .  A
C757        H764   1.079       .  S
C758        C759   1.415       .  A
C759        C760   1.411       .  A
C759        N766   1.444       .  S
C760        C761   1.410       .  A
C760        H765   1.083       .  S
C761        C762   1.413       .  A
C762        N763   1.438       .  S
N763        O767   1.263       .  A
N763        O768   1.262       .  A
N766        O769   1.262       .  A
N766        O770   1.263       .  A
C771        C772   1.406       .  A
C771        C776   1.411       .  A
C771        H778   1.083       .  S
C772        C773   1.419       .  A
C773        C774   1.395       .  A
C773        N780   1.433       .  S
C774        C775   1.395       .  A
C774        H779   1.085       .  S
C775        C776   1.419       .  A
C776        N777   1.445       .  S
N777        O781   1.263       .  A
N777        O782   1.262       .  A
N780        O783   1.263       .  A
N780        O784   1.262       .  A
C785        C786   1.410       .  A
C785        C790   1.411       .  A
C785        H792   1.083       .  S
C786       C1739   1.411       .  A
C787       C1738   1.411   1_455  A
C787        C788   1.395       .  A
C787        N794   1.433       .  S
C788       C1741   1.403   1_455  A
C788        H793   1.083       .  S
C789       C1740   1.403       .  A
C789        C790   1.416       .  A
C790        N791   1.441       .  S
N791        O795   1.263       .  A
N791        O796   1.263       .  A
N794       O1749   1.263       .  A
N794        O798   1.262       .  A
O797       N1746   1.263       .  A
C799        C800   1.406       .  A
C799        C804   1.403       .  A
C799        H806   1.083       .  S
C801        C802   1.402   1_545  A
C801        N808   1.439   1_545  S
C802        H807   1.084       .  S
C803        C804   1.413       .  A
C804        N805   1.437       .  S
N805        O809   1.263       .  A
N805        O810   1.262       .  A
N808        O811   1.263       .  A
N808        O812   1.263       .  A
C813        C818   1.404   1_545  A
C813        H820   1.083   1_545  S
C814        C815   1.417       .  A
C815        C816   1.401       .  A
C815        N822   1.437       .  S
C816        C817   1.401       .  A
C816        H821   1.084       .  S
C818        N819   1.443       .  S
N819        O823   1.263       .  A
N819        O824   1.263       .  A
N822        O825   1.262       .  A
N822        O826   1.263       .  A
C827       C1780   1.401   1_455  A
C827        C832   1.403       .  A
C827        H834   1.084       .  S
C828       C1779   1.401       .  A
C828        C829   1.416       .  A
C829        C830   1.406       .  A
C829        N836   1.442       .  S
C830        C831   1.407       .  A
C830        H835   1.083       .  S
C831       C1784   1.421       .  A
C832       C1783   1.421   1_455  A
C832        N833   1.439       .  S
N833        O837   1.263       .  A
N833        O838   1.263       .  A
N836        O839   1.263       .  A
N836        O840   1.263       .  A
C841       C1794   1.410   1_655  A
C841        C846   1.406   1_655  A
C841        H848   1.082       .  S
C842       C1793   1.410       .  A
C842       C1795   1.420       .  A
C843       C1794   1.420       .  A
C843        C844   1.403       .  A
C843       N1802   1.430       .  S
C844        C845   1.397       .  A
C844        H849   1.084       .  S
C845        C846   1.415       .  A
C846        N847   1.440   1_455  S
N847        O851   1.263       .  A
N847       O1804   1.261       .  A
N850       C1795   1.430       .  S
N850       O1805   1.261       .  A
N850        O854   1.263       .  A
O852       N1799   1.261       .  A
O853       N1802   1.261       .  A
C855        C856   1.408       .  A
C855        C860   1.411       .  A
C855        H862   1.083       .  S
C856       C1809   1.420       .  A
C857       C1808   1.420   1_455  A
C857        C858   1.394       .  A
C857        N864   1.433       .  S
C858       C1811   1.397   1_455  A
C858        H863   1.085       .  S
C859       C1810   1.397       .  A
C859        C860   1.417       .  A
C860        N861   1.441       .  S
N861        O865   1.263       .  A
N861        O866   1.263       .  A
N864        O867   1.263       .  A
N864        O868   1.262       .  A
C869        C870   1.410       .  A
C869        C874   1.414       .  A
C869        H876   1.083       .  S
C870       C1823   1.425   1_455  A
C871       C1822   1.425       .  A
C871        C872   1.393       .  A
C871        N878   1.432       .  S
C872        C873   1.395       .  A
C872        H877   1.085       .  S
C873       C1826   1.417       .  A
C874       C1825   1.417       .  A
C874        N875   1.440       .  S
N875        O879   1.263       .  A
N875        O880   1.262       .  A
N878        O881   1.262       .  A
N878        O882   1.263       .  A
C883       C1836   1.402   1_455  A
C883        C888   1.403       .  A
C883        H890   1.085       .  S
C884       C1835   1.402       .  A
C884        C885   1.413       .  A
C885        C886   1.406       .  A
C885        N892   1.443       .  S
C886        C887   1.411       .  A
C886        H891   1.083       .  S
C887       C1840   1.417       .  A
C888       C1839   1.417   1_455  A
C888        N889   1.435       .  S
N889        O893   1.263       .  A
N889        O894   1.262       .  A
N892        O895   1.262       .  A
N892        O896   1.263       .  A
C897        C902   1.388       .  A
C897        H904   1.082       .  S
C898        C899   1.422       .  A
C899        C900   1.419       .  A
C899        N906   1.437       .  S
C900        H905   1.083       .  S
C901        C902   1.404       .  A
C902        N903   1.437       .  S
N903        O907   1.262       .  A
N903        O908   1.263       .  A
N906        O909   1.262       .  A
N906        O910   1.263       .  A
C911        C912   1.404       .  A
C911        C916   1.410       .  A
C911        H918   1.084       .  S
C912        C913   1.415       .  A
C913        C914   1.396       .  A
C913        N920   1.438       .  S
C914        C915   1.403       .  A
C914        H919   1.083       .  S
C915        C916   1.417       .  A
C916        N917   1.434       .  S
N917        O921   1.263       .  A
N917        O922   1.261       .  A
N920        O923   1.263       .  A
C925        C930   1.396       .  A
C925        H932   1.084       .  S
C926        C927   1.417       .  A
C927        C928   1.412       .  A
C927        N934   1.433       .  S
C928        H933   1.083       .  S
C929        C930   1.417       .  A
C930        N931   1.438       .  S
N931        O935   1.263       .  A
N931        O936   1.263       .  A
N934        O937   1.262       .  A
N934        O938   1.262       .  A
C939        C940   1.406       .  A
C939        C944   1.416       .  A
C939        H946   1.083       .  S
C940        C941   1.413       .  A
C941        C942   1.393       .  A
C941        N948   1.439       .  S
C942        C943   1.405       .  A
C942        H947   1.083       .  S
C943        C944   1.421       .  A
C944        N945   1.440       .  S
N945        O949   1.261       .  A
N945        O950   1.263       .  A
N948        O952   1.263       .  A
O953       Zr965   2.424       .  S
O953       C1431   1.286       .  A
O954       Zr991   2.445       .  S
O954        C955   1.290       .  A
C955       O1429   1.286       .  A
C955       C1416   1.485       .  S
O956       Zr968   2.427       .  S
O957       Zr992   2.452       .  S
O957        C958   1.292       .  A
C958       C1321   1.472       .  S
O959       Zr968   2.418       .  S
O959       C1437   1.285       .  A
O960       Zr991   2.448       .  S
O960        C961   1.291       .  A
C961       O1435   1.285   1_545  A
C961       C1388   1.481       .  S
O962       Zr965   2.416       .  S
O963       Zr992   2.465       .  S
O963        C964   1.295       .  A
C964       C1346   1.500       .  S
Zr965       O966   2.433       .  S
Zr965       O967   2.433       .  S
Zr965       O971   2.365       .  S
Zr965       O972   2.360       .  S
Zr965      O1473   2.362       .  S
O966       H1009   0.990       .  S
O967       H1008   0.989       .  S
O967       H1012   0.989       .  S
Zr968       O969   2.436       .  S
Zr968       O970   2.434       .  S
Zr968       O972   2.356       .  S
Zr968       O971   2.367       .  S
Zr968      O1472   2.370       .  S
O969       H1010   0.990       .  S
O969       H1013   0.990       .  S
O970       H1003   0.989       .  S
O971      Zr1467   2.386       .  S
O972        H999   0.962       .  S
O973       Zr985   2.421       .  S
O973       C1451   1.286   1_545  A
O974       Zr992   2.454       .  S
O974        C975   1.291       .  A
C975       O1449   1.286       .  A
C975       C1402   1.493       .  S
O976       Zr988   2.417       .  S
O977       Zr991   2.447       .  S
O977        C978   1.291       .  A
C978       C1332   1.492       .  S
O979       Zr988   2.395       .  S
O979       C1457   1.280   1_545  A
O980       Zr992   2.471       .  S
O980        C981   1.293       .  A
C981       O1455   1.280       .  A
C981       C1374   1.504       .  S
O982       Zr985   2.429       .  S
O983       Zr991   2.438       .  S
O983        C984   1.289       .  A
C984       C1360   1.471       .  S
Zr985       O986   2.436       .  S
Zr985       O987   2.435       .  S
Zr985       O993   2.366       .  S
Zr985       O994   2.360       .  S
Zr985      O1471   2.371   1_545  S
O986       H1006   0.990       .  S
O986       H1011   0.990       .  S
O987       H1007   0.990       .  S
Zr988       O989   2.434       .  S
Zr988       O990   2.433       .  S
Zr988       O994   2.355       .  S
Zr988       O993   2.364       .  S
Zr988      O1474   2.365   1_545  S
O989       H1005   0.990       .  S
O990       H1004   0.990       .  S
O990       H1014   0.990       .  S
Zr991      O1447   2.386   1_545  S
Zr991       O996   2.396       .  S
Zr991       O997   2.396       .  S
Zr992      O1469   2.396       .  S
Zr992       O995   2.400       .  S
Zr992       O998   2.399       .  S
O993      Zr1468   2.396   1_545  S
O993       H1001   0.966       .  S
O995      Zr1461   2.371       .  S
O996      Zr1444   2.370   1_545  S
O996       H1000   0.966       .  S
O997      Zr1441   2.362   1_545  S
O997       H1002   0.966       .  S
O998      Zr1464   2.365       .  S
C1015      C1363   1.497       .  S
C1015      C1016   1.412   1_655  A
C1015      C1020   1.410       .  A
C1016      C1017   1.405       .  A
C1016      H1021   1.083       .  S
C1017      C1349   1.482       .  S
C1017      C1018   1.403       .  A
C1018      C1019   1.400   1_455  A
C1018      H1022   1.084       .  S
C1019      C1304   1.485       .  S
C1019      C1020   1.401       .  A
C1020      H1023   1.083       .  S
C1024      C1405   1.495       .  S
C1024      C1025   1.413       .  A
C1024      C1029   1.406       .  A
C1025      C1026   1.414       .  A
C1025      H1030   1.082       .  S
C1026      C1419   1.497       .  S
C1026      C1027   1.406       .  A
C1027      C1028   1.394       .  A
C1027      H1031   1.084       .  S
C1028      C1293   1.476       .  S
C1028      C1029   1.396       .  A
C1029      H1032   1.084   1_545  S
C1033      C1377   1.483       .  S
C1033      C1034   1.405   1_565  A
C1033      C1038   1.406   1_565  A
C1034      C1035   1.411       .  A
C1034      H1039   1.083   1_545  S
C1035      C1391   1.491       .  S
C1035      C1036   1.406       .  A
C1036      C1037   1.398       .  A
C1036      H1040   1.084       .  S
C1037      C1279   1.481       .  S
C1037      C1038   1.400       .  A
C1038      H1041   1.084   1_545  S
C1042      C1335   1.479       .  S
C1042      C1043   1.402       .  A
C1042      C1047   1.398       .  A
C1043      C1044   1.413   1_655  A
C1043      H1048   1.083   1_655  S
C1044      C1318   1.506       .  S
C1044      C1045   1.416   1_455  A
C1045      C1046   1.411       .  A
C1045      H1049   1.081       .  S
C1046      C1262   1.493       .  S
C1046      C1047   1.398       .  A
C1047      H1050   1.084       .  S
C1051      C1251   1.473       .  S
C1051      C1528   1.400       .  A
C1051      C1056   1.398       .  A
C1052      C1527   1.400   1_545  A
C1052      C1053   1.406       .  A
C1052      H1057   1.084       .  S
C1053      C1237   1.488       .  S
C1053      C1054   1.406       .  A
C1054      C1055   1.406       .  A
C1054      H1058   1.083       .  S
C1055      C1290   1.487       .  S
C1055      C1532   1.404   1_545  A
C1056      C1531   1.404       .  A
C1056      H1059   1.084       .  S
O1060     Zr1072   2.415       .  S
O1060      C1062   1.285       .  A
O1061     Zr1098   2.445   1_556  S
O1061      C1062   1.290       .  A
C1062      C1164   1.492       .  S
O1063     Zr1075   2.412       .  S
O1063      C1065   1.282       .  A
O1064     Zr1099   2.457   1_554  S
O1064      C1065   1.293       .  A
C1065      C1192   1.493       .  S
O1066     Zr1075   2.423       .  S
O1066      C1068   1.285       .  A
O1067     Zr1098   2.441       .  S
O1067      C1068   1.290       .  A
C1068      C1248   1.488       .  S
O1069     Zr1072   2.411       .  S
O1069      C1071   1.283       .  A
O1070     Zr1099   2.454       .  S
O1070      C1071   1.292       .  A
C1071      C1220   1.483       .  S
Zr1072     O1073   2.434       .  S
Zr1072     O1074   2.435       .  S
Zr1072     O1078   2.361       .  S
Zr1072     O1079   2.368       .  S
Zr1072     O1102   2.365       .  S
Zr1072     O1104   2.362       .  S
O1073      H1116   0.990       .  S
O1074      H1115   0.990       .  S
O1074      H1119   0.990       .  S
Zr1075     O1076   2.436       .  S
Zr1075     O1077   2.435       .  S
Zr1075     O1079   2.368   1_554  S
Zr1075     O1078   2.357   1_554  S
Zr1075     O1103   2.366       .  S
Zr1075     O1105   2.367       .  S
O1076      H1117   0.990       .  S
O1076      H1120   0.990       .  S
O1077      H1110   0.990       .  S
O1078     Zr1098   2.380   1_556  S
O1079     Zr1099   2.391       .  S
O1079      H1106   0.966       .  S
O1080     Zr1092   2.422       .  S
O1080      C1082   1.284       .  A
O1081     Zr1099   2.457       .  S
O1081      C1082   1.293       .  A
C1082      C1153   1.479       .  S
O1083     Zr1095   2.412       .  S
O1083      C1085   1.283       .  A
O1084     Zr1098   2.451       .  S
O1084      C1085   1.291       .  A
C1085      C1178   1.471       .  S
O1086     Zr1095   2.431       .  S
O1086      C1088   1.286       .  A
O1087     Zr1099   2.440   1_554  S
O1087      C1088   1.289       .  A
C1088      C1234   1.471       .  S
O1089     Zr1092   2.424       .  S
O1089      C1091   1.284       .  A
O1090     Zr1098   2.438   1_556  S
O1090      C1091   1.289       .  A
C1091      C1206   1.468       .  S
Zr1092     O1093   2.436       .  S
Zr1092     O1094   2.435       .  S
Zr1092     O1100   2.369   1_556  S
Zr1092     O1101   2.365   1_556  S
Zr1092     O1104   2.363       .  S
Zr1092     O1102   2.371       .  S
O1093      H1113   0.989       .  S
O1093      H1118   0.990       .  S
O1094      H1114   0.990       .  S
Zr1095     O1096   2.434       .  S
Zr1095     O1097   2.434       .  S
Zr1095     O1101   2.371       .  S
Zr1095     O1100   2.360       .  S
Zr1095     O1105   2.359       .  S
Zr1095     O1103   2.368       .  S
O1096      H1112   0.990       .  S
O1097      H1111   0.990       .  S
O1097      H1121   0.990       .  S
Zr1098     O1101   2.384       .  S
Zr1098     O1103   2.394       .  S
Zr1098     O1104   2.393   1_554  S
Zr1099     O1100   2.390   1_556  S
Zr1099     O1102   2.395       .  S
Zr1099     O1105   2.393   1_556  S
O1100      H1108   0.963       .  S
O1103      H1107   0.966       .  S
O1104      H1109   0.966       .  S
C1122      C1181   1.489       .  S
C1122      C1123   1.409       .  A
C1122      C1127   1.407       .  A
C1123      C1124   1.410       .  A
C1123      H1128   1.083       .  S
C1124      C1307   1.496       .  S
C1125      C1126   1.400       .  A
C1125      H1129   1.083       .  S
C1126      C1195   1.481       .  S
C1127      H1130   1.084       .  S
C1131      C1167   1.472       .  S
C1131      C1132   1.400       .  A
C1131      C1612   1.399       .  A
C1132      C1609   1.405       .  A
C1132      H1137   1.084       .  S
C1133      C1276   1.488       .  S
C1133      C1608   1.405   1_545  A
C1133      C1134   1.407       .  A
C1134      C1135   1.403       .  A
C1134      H1138   1.084       .  S
C1135      C1150   1.476       .  S
C1135      C1136   1.402       .  A
C1136      C1607   1.399   1_545  A
C1136      H1139   1.084       .  S
C1140      C1209   1.502       .  S
C1140      C1141   1.410       .  A
C1140      C1145   1.414       .  A
C1141      H1146   1.082       .  S
C1142      C1223   1.488       .  S
C1142      C1143   1.399       .  A
C1143      H1147   1.084       .  S
C1144      C1265   1.487       .  S
C1144      C1145   1.404       .  A
C1145      H1148   1.081       .  S
C1149      C1150   1.396       .  A
C1149      C1154   1.398       .  A
C1149      H1156   1.084       .  S
C1150      C1151   1.417       .  A
C1151      C1152   1.410       .  A
C1151      N1158   1.442       .  S
C1152      C1153   1.403       .  A
C1152      H1157   1.084       .  S
C1153      C1154   1.420       .  A
C1154      N1155   1.440       .  S
N1155      O1159   1.263       .  A
N1155      O1160   1.260       .  A
N1158      O1161   1.262       .  A
N1158      O1162   1.263       .  A
C1163      C1164   1.412       .  A
C1163      C1168   1.398       .  A
C1163      H1170   1.083       .  S
C1164      C1165   1.418       .  A
C1165      C1166   1.408       .  A
C1165      N1172   1.436       .  S
C1166      C1167   1.403       .  A
C1166      H1171   1.084       .  S
C1167      C1168   1.408       .  A
C1168      N1169   1.443       .  S
N1169      O1173   1.263       .  A
N1169      O1174   1.262       .  A
N1172      O1175   1.262       .  A
N1172      O1176   1.262       .  A
C1177      C1178   1.403       .  A
C1177      C1182   1.400       .  A
C1177      H1184   1.085       .  S
C1178      C1179   1.419       .  A
C1179      C1180   1.412       .  A
C1179      N1186   1.448       .  S
C1180      C1181   1.408       .  A
C1180      H1185   1.083       .  S
C1181      C1182   1.413       .  A
C1182      N1183   1.438       .  S
N1183      O1187   1.262       .  A
N1183      O1188   1.262       .  A
N1186      O1189   1.262       .  A
N1186      O1190   1.263       .  A
C1191      C1192   1.407       .  A
C1191      C1196   1.411       .  A
C1191      H1198   1.082       .  S
C1192      C1193   1.422       .  A
C1193      C1194   1.394       .  A
C1193      N1200   1.435       .  S
C1194      C1195   1.396       .  A
C1194      H1199   1.084       .  S
C1195      C1196   1.416       .  A
C1196      N1197   1.439       .  S
N1197      O1201   1.262       .  A
N1197      O1202   1.262       .  A
N1200      O1203   1.263       .  A
N1200      O1204   1.262       .  A
C1205      C1206   1.398       .  A
C1205      C1210   1.400       .  A
C1205      H1212   1.085       .  S
C1206      C1207   1.414       .  A
C1207      C1208   1.408       .  A
C1207      N1214   1.445       .  S
C1208      C1209   1.411       .  A
C1208      H1213   1.081       .  S
C1209      C1210   1.421       .  A
C1210      N1211   1.434       .  S
N1211      O1215   1.262       .  A
N1211      O1216   1.262       .  A
N1214      O1217   1.262       .  A
N1214      O1218   1.263       .  A
C1219      C1220   1.406       .  A
C1219      C1224   1.399       .  A
C1219      H1226   1.084       .  S
C1220      C1221   1.412       .  A
C1221      C1222   1.405       .  A
C1221      N1228   1.432       .  S
C1222      C1223   1.406       .  A
C1222      H1227   1.084       .  S
C1223      C1224   1.415       .  A
C1224      N1225   1.437       .  S
N1225      O1229   1.263       .  A
N1225      O1230   1.263       .  A
N1228      O1231   1.262       .  A
N1228      O1232   1.262       .  A
C1233      C1234   1.400       .  A
C1233      C1238   1.397       .  A
C1233      H1240   1.079       .  S
C1234      C1235   1.415       .  A
C1235      C1236   1.411       .  A
C1235      N1242   1.444       .  S
C1236      C1237   1.410       .  A
C1236      H1241   1.083       .  S
C1237      C1238   1.413       .  A
C1238      N1239   1.438       .  S
N1239      O1243   1.263       .  A
N1239      O1244   1.262       .  A
N1242      O1245   1.262       .  A
N1242      O1246   1.263       .  A
C1247      C1248   1.406       .  A
C1247      C1252   1.411       .  A
C1247      H1254   1.083       .  S
C1248      C1249   1.419       .  A
C1249      C1250   1.395       .  A
C1249      N1256   1.433       .  S
C1250      C1251   1.395       .  A
C1250      H1255   1.085       .  S
C1251      C1252   1.419       .  A
C1252      N1253   1.445       .  S
N1253      O1257   1.263       .  A
N1253      O1258   1.262       .  A
N1256      O1259   1.263       .  A
N1256      O1260   1.262       .  A
C1261      C1262   1.410       .  A
C1261      C1266   1.411       .  A
C1261      H1268   1.083       .  S
C1263      C1264   1.395       .  A
C1263      N1270   1.433       .  S
C1264      H1269   1.083       .  S
C1265      C1266   1.416       .  A
C1266      N1267   1.441       .  S
N1267      O1271   1.263       .  A
N1267      O1272   1.263       .  A
N1270      O1274   1.262       .  A
C1275      C1276   1.406       .  A
C1275      C1280   1.403       .  A
C1275      H1282   1.083       .  S
C1276      C1753   1.419       .  A
C1277      C1752   1.419       .  A
C1277      C1278   1.402       .  A
C1277      N1284   1.439       .  S
C1278      C1755   1.402       .  A
C1278      H1283   1.084       .  S
C1279      C1754   1.402   1_545  A
C1279      C1280   1.413       .  A
C1280      N1281   1.437       .  S
N1281      O1285   1.263       .  A
N1281      O1286   1.262       .  A
N1284      O1287   1.263       .  A
N1284      O1288   1.263       .  A
C1289      C1766   1.406       .  A
C1289      C1294   1.404       .  A
C1289      H1296   1.083       .  S
C1290      C1765   1.406       .  A
C1290      C1291   1.417       .  A
C1291      C1292   1.401       .  A
C1291      N1298   1.437       .  S
C1292      C1293   1.401       .  A
C1292      H1297   1.084       .  S
C1293      C1770   1.415   1_545  A
C1294      C1769   1.415       .  A
C1294      N1295   1.443       .  S
N1295      O1299   1.263       .  A
N1295      O1300   1.263       .  A
N1298      O1301   1.262       .  A
N1298      O1302   1.263       .  A
C1303      C1308   1.403       .  A
C1303      H1310   1.084       .  S
C1304      C1305   1.416       .  A
C1305      C1306   1.406       .  A
C1305      N1312   1.442       .  S
C1306      C1307   1.407       .  A
C1306      H1311   1.083       .  S
C1308      N1309   1.439       .  S
N1309      O1313   1.263       .  A
N1309      O1314   1.263       .  A
N1312      O1315   1.263       .  A
N1312      O1316   1.263       .  A
C1317      C1322   1.406       .  A
C1317      H1324   1.082       .  S
C1319      C1320   1.403       .  A
C1320      C1321   1.397       .  A
C1320      H1325   1.084       .  S
C1321      C1322   1.415       .  A
C1322      N1323   1.440       .  S
N1323      O1327   1.263       .  A
N1326      O1330   1.263       .  A
C1331      C1332   1.408       .  A
C1331      C1336   1.411       .  A
C1331      H1338   1.083       .  S
C1333      C1334   1.394       .  A
C1333      N1340   1.433       .  S
C1334      H1339   1.085       .  S
C1335      C1336   1.417       .  A
C1336      N1337   1.441       .  S
N1337      O1341   1.263       .  A
N1337      O1342   1.263       .  A
N1340      O1343   1.263       .  A
N1340      O1344   1.262       .  A
C1345      C1346   1.410       .  A
C1345      C1350   1.414       .  A
C1345      H1352   1.083       .  S
C1347      C1348   1.393       .  A
C1347      N1354   1.432       .  S
C1348      C1349   1.395   1_655  A
C1348      H1353   1.085       .  S
C1350      N1351   1.440       .  S
N1351      O1355   1.263       .  A
N1351      O1356   1.262       .  A
N1354      O1357   1.262       .  A
N1354      O1358   1.263       .  A
C1359      C1364   1.403       .  A
C1359      H1366   1.085       .  S
C1360      C1361   1.413       .  A
C1361      C1362   1.406       .  A
C1361      N1368   1.443       .  S
C1362      C1363   1.411       .  A
C1362      H1367   1.083       .  S
C1364      N1365   1.435       .  S
N1365      O1369   1.263       .  A
N1365      O1370   1.262       .  A
N1368      O1371   1.262       .  A
N1368      O1372   1.263       .  A
C1373      C1850   1.415   1_545  A
C1373      C1378   1.388       .  A
C1373      H1380   1.082       .  S
C1374      C1849   1.415       .  A
C1374      C1375   1.422       .  A
C1375      C1376   1.419       .  A
C1375      N1382   1.437       .  S
C1376      C1853   1.408       .  A
C1376      H1381   1.083       .  S
C1377      C1852   1.408       .  A
C1377      C1378   1.404   1_565  A
C1378      N1379   1.437       .  S
N1379      O1383   1.262       .  A
N1379      O1384   1.263       .  A
N1382      O1385   1.262       .  A
N1382      O1386   1.263       .  A
C1387      C1388   1.404       .  A
C1387      C1392   1.410       .  A
C1387      H1394   1.084       .  S
C1388      C1389   1.415       .  A
C1389      C1390   1.396       .  A
C1389      N1396   1.438       .  S
C1390      C1391   1.403       .  A
C1390      H1395   1.083   1_545  S
C1391      C1392   1.417       .  A
C1392      N1393   1.434       .  S
N1393      O1397   1.263       .  A
N1393      O1398   1.261       .  A
N1396      O1399   1.263       .  A
N1396      O1876   1.263   1_545  A
O1400      N1872   1.263       .  A
C1401      C1878   1.406   1_545  A
C1401      C1406   1.396       .  A
C1401      H1408   1.084       .  S
C1402      C1877   1.406       .  A
C1402      C1403   1.417       .  A
C1403      C1404   1.412       .  A
C1403      N1410   1.433       .  S
C1404      C1881   1.408       .  A
C1404      H1409   1.083       .  S
C1405      C1880   1.408   1_545  A
C1405      C1406   1.417       .  A
C1406      N1407   1.438       .  S
N1407      O1411   1.263       .  A
N1407      O1412   1.263       .  A
N1410      O1413   1.262       .  A
N1410      O1414   1.262       .  A
C1415      C1416   1.406       .  A
C1415      C1420   1.416       .  A
C1415      H1422   1.083       .  S
C1416      C1417   1.413       .  A
C1417      C1418   1.393       .  A
C1417      N1424   1.439       .  S
C1418      C1419   1.405       .  A
C1418      H1423   1.083       .  S
C1419      C1420   1.421       .  A
C1420      N1421   1.440       .  S
N1421      O1425   1.261       .  A
N1421      O1426   1.263       .  A
N1424      O1903   1.263   1_545  A
N1424      O1428   1.263       .  A
O1427      N1900   1.263       .  A
O1429     Zr1441   2.424   1_545  S
O1430     Zr1467   2.445       .  S
O1430      C1431   1.290       .  A
C1431      C1892   1.485       .  S
O1432     Zr1444   2.427       .  S
O1433     Zr1468   2.452       .  S
O1433      C1434   1.292       .  A
C1434      C1797   1.472       .  S
O1435     Zr1444   2.418       .  S
O1436     Zr1467   2.448       .  S
O1436      C1437   1.291       .  A
C1437      C1864   1.481       .  S
O1438     Zr1441   2.416       .  S
O1439     Zr1468   2.465       .  S
O1439      C1440   1.295       .  A
C1440      C1822   1.500       .  S
Zr1441     O1442   2.433       .  S
Zr1441     O1443   2.433       .  S
Zr1441     O1447   2.365       .  S
Zr1441     O1448   2.360       .  S
O1442      H1485   0.990       .  S
O1443      H1484   0.989   1_565  S
O1443      H1488   0.989       .  S
Zr1444     O1445   2.436       .  S
Zr1444     O1446   2.434       .  S
Zr1444     O1448   2.356       .  S
Zr1444     O1447   2.367       .  S
O1445      H1486   0.990       .  S
O1445      H1489   0.990       .  S
O1446      H1479   0.989       .  S
O1448      H1475   0.962       .  S
O1449     Zr1461   2.421       .  S
O1450     Zr1468   2.454       .  S
O1450      C1451   1.291       .  A
C1451      C1878   1.493       .  S
O1452     Zr1464   2.417       .  S
O1453     Zr1467   2.447       .  S
O1453      C1454   1.291       .  A
C1454      C1808   1.492       .  S
O1455     Zr1464   2.395       .  S
O1456     Zr1468   2.471       .  S
O1456      C1457   1.293       .  A
C1457      C1850   1.504       .  S
O1458     Zr1461   2.429       .  S
O1459     Zr1467   2.438       .  S
O1459      C1460   1.289       .  A
C1460      C1836   1.471       .  S
Zr1461     O1462   2.436       .  S
Zr1461     O1463   2.435       .  S
Zr1461     O1469   2.366       .  S
Zr1461     O1470   2.360       .  S
O1462      H1482   0.990       .  S
O1462      H1487   0.990       .  S
O1463      H1483   0.990       .  S
Zr1464     O1465   2.434       .  S
Zr1464     O1466   2.433       .  S
Zr1464     O1470   2.355       .  S
Zr1464     O1469   2.364       .  S
O1465      H1481   0.990       .  S
O1466      H1480   0.990       .  S
O1466      H1490   0.990       .  S
Zr1467     O1472   2.396       .  S
Zr1467     O1473   2.396       .  S
Zr1468     O1471   2.400       .  S
Zr1468     O1474   2.399       .  S
O1469      H1477   0.966       .  S
O1472      H1476   0.966       .  S
O1473      H1478   0.966       .  S
C1491      C1839   1.497       .  S
C1491      C1492   1.412   1_655  A
C1491      C1496   1.410       .  A
C1492      C1493   1.405       .  A
C1492      H1497   1.083       .  S
C1493      C1825   1.482       .  S
C1493      C1494   1.403       .  A
C1494      C1495   1.400   1_455  A
C1494      H1498   1.084       .  S
C1495      C1780   1.485       .  S
C1495      C1496   1.401       .  A
C1496      H1499   1.083       .  S
C1500      C1881   1.495       .  S
C1500      C1501   1.413       .  A
C1500      C1505   1.406       .  A
C1501      C1502   1.414       .  A
C1501      H1506   1.082       .  S
C1502      C1895   1.497       .  S
C1502      C1503   1.406       .  A
C1503      C1504   1.394       .  A
C1503      H1507   1.084       .  S
C1504      C1769   1.476       .  S
C1504      C1505   1.396       .  A
C1505      H1508   1.084       .  S
C1509      C1853   1.483       .  S
C1509      C1510   1.405       .  A
C1509      C1514   1.406       .  A
C1510      C1511   1.411       .  A
C1510      H1515   1.083       .  S
C1511      C1867   1.491       .  S
C1511      C1512   1.406       .  A
C1512      C1513   1.398       .  A
C1512      H1516   1.084       .  S
C1513      C1755   1.481       .  S
C1513      C1514   1.400       .  A
C1514      H1517   1.084       .  S
C1518      C1811   1.479       .  S
C1518      C1519   1.402       .  A
C1518      C1523   1.398       .  A
C1519      C1520   1.413   1_655  A
C1519      H1524   1.083   1_655  S
C1520      C1794   1.506       .  S
C1520      C1521   1.416   1_455  A
C1521      C1522   1.411       .  A
C1521      H1525   1.081       .  S
C1522      C1738   1.493       .  S
C1522      C1523   1.398       .  A
C1523      H1526   1.084       .  S
C1527      C1727   1.473       .  S
C1527      C1532   1.398       .  A
C1528      C1529   1.406       .  A
C1528      H1533   1.084       .  S
C1529      C1713   1.488       .  S
C1529      C1530   1.406       .  A
C1530      C1531   1.406       .  A
C1530      H1534   1.083       .  S
C1531      C1766   1.487       .  S
C1532      H1535   1.084       .  S
O1536     Zr1548   2.415       .  S
O1536      C1538   1.285       .  A
O1537     Zr1574   2.445   1_556  S
O1537      C1538   1.290       .  A
C1538      C1640   1.492       .  S
O1539     Zr1551   2.412       .  S
O1539      C1541   1.282       .  A
O1540     Zr1575   2.457   1_554  S
O1540      C1541   1.293       .  A
C1541      C1668   1.493       .  S
O1542     Zr1551   2.423       .  S
O1542      C1544   1.285       .  A
O1543     Zr1574   2.441       .  S
O1543      C1544   1.290       .  A
C1544      C1724   1.488       .  S
O1545     Zr1548   2.411       .  S
O1545      C1547   1.283       .  A
O1546     Zr1575   2.454       .  S
O1546      C1547   1.292       .  A
C1547      C1696   1.483       .  S
Zr1548     O1549   2.434       .  S
Zr1548     O1550   2.435       .  S
Zr1548     O1554   2.361       .  S
Zr1548     O1555   2.368       .  S
Zr1548     O1578   2.365       .  S
Zr1548     O1580   2.362       .  S
O1549      H1592   0.990       .  S
O1550      H1591   0.990       .  S
O1550      H1595   0.990       .  S
Zr1551     O1552   2.436       .  S
Zr1551     O1553   2.435       .  S
Zr1551     O1555   2.368   1_554  S
Zr1551     O1554   2.357   1_554  S
Zr1551     O1579   2.366       .  S
Zr1551     O1581   2.367       .  S
O1552      H1593   0.990       .  S
O1552      H1596   0.990       .  S
O1553      H1586   0.990       .  S
O1554     Zr1574   2.380   1_556  S
O1555     Zr1575   2.391       .  S
O1555      H1582   0.966       .  S
O1556     Zr1568   2.422       .  S
O1556      C1558   1.284       .  A
O1557     Zr1575   2.457       .  S
O1557      C1558   1.293       .  A
C1558      C1629   1.479       .  S
O1559     Zr1571   2.412       .  S
O1559      C1561   1.283       .  A
O1560     Zr1574   2.451       .  S
O1560      C1561   1.291       .  A
C1561      C1654   1.471       .  S
O1562     Zr1571   2.431       .  S
O1562      C1564   1.286       .  A
O1563     Zr1575   2.440   1_554  S
O1563      C1564   1.289       .  A
C1564      C1710   1.471       .  S
O1565     Zr1568   2.424       .  S
O1565      C1567   1.284       .  A
O1566     Zr1574   2.438   1_556  S
O1566      C1567   1.289       .  A
C1567      C1682   1.468       .  S
Zr1568     O1569   2.436       .  S
Zr1568     O1570   2.435       .  S
Zr1568     O1576   2.369   1_556  S
Zr1568     O1577   2.365   1_556  S
Zr1568     O1580   2.363       .  S
Zr1568     O1578   2.371       .  S
O1569      H1589   0.989       .  S
O1569      H1594   0.990       .  S
O1570      H1590   0.990       .  S
Zr1571     O1572   2.434       .  S
Zr1571     O1573   2.434       .  S
Zr1571     O1577   2.371       .  S
Zr1571     O1576   2.360       .  S
Zr1571     O1581   2.359       .  S
Zr1571     O1579   2.368       .  S
O1572      H1588   0.990       .  S
O1573      H1587   0.990       .  S
O1573      H1597   0.990       .  S
Zr1574     O1577   2.384       .  S
Zr1574     O1579   2.394       .  S
Zr1574     O1580   2.393   1_554  S
Zr1575     O1576   2.390   1_556  S
Zr1575     O1578   2.395       .  S
Zr1575     O1581   2.393   1_556  S
O1576      H1584   0.963       .  S
O1579      H1583   0.966       .  S
O1580      H1585   0.966       .  S
C1598      C1657   1.489       .  S
C1598      C1599   1.409       .  A
C1598      C1603   1.407       .  A
C1599      C1600   1.410       .  A
C1599      H1604   1.083       .  S
C1600      C1783   1.496       .  S
C1601      C1602   1.400       .  A
C1601      H1605   1.083       .  S
C1602      C1671   1.481       .  S
C1603      H1606   1.084       .  S
C1607      C1643   1.472       .  S
C1607      C1608   1.400       .  A
C1608      H1613   1.084       .  S
C1609      C1752   1.488       .  S
C1609      C1610   1.407       .  A
C1610      C1611   1.403       .  A
C1610      H1614   1.084       .  S
C1611      C1626   1.476       .  S
C1611      C1612   1.402       .  A
C1612      H1615   1.084       .  S
C1616      C1685   1.502       .  S
C1616      C1617   1.410       .  A
C1616      C1621   1.414       .  A
C1617      H1622   1.082       .  S
C1618      C1699   1.488       .  S
C1618      C1619   1.399       .  A
C1619      H1623   1.084       .  S
C1620      C1741   1.487       .  S
C1620      C1621   1.404       .  A
C1621      H1624   1.081       .  S
C1625      C1626   1.396       .  A
C1625      C1630   1.398       .  A
C1625      H1632   1.084       .  S
C1626      C1627   1.417       .  A
C1627      C1628   1.410       .  A
C1627      N1634   1.442       .  S
C1628      C1629   1.403       .  A
C1628      H1633   1.084       .  S
C1629      C1630   1.420       .  A
C1630      N1631   1.440       .  S
N1631      O1635   1.263       .  A
N1631      O1636   1.260       .  A
N1634      O1637   1.262       .  A
N1634      O1638   1.263       .  A
C1639      C1640   1.412       .  A
C1639      C1644   1.398       .  A
C1639      H1646   1.083       .  S
C1640      C1641   1.418       .  A
C1641      C1642   1.408       .  A
C1641      N1648   1.436       .  S
C1642      C1643   1.403       .  A
C1642      H1647   1.084       .  S
C1643      C1644   1.408       .  A
C1644      N1645   1.443       .  S
N1645      O1649   1.263       .  A
N1645      O1650   1.262       .  A
N1648      O1651   1.262       .  A
N1648      O1652   1.262       .  A
C1653      C1654   1.403       .  A
C1653      C1658   1.400       .  A
C1653      H1660   1.085       .  S
C1654      C1655   1.419       .  A
C1655      C1656   1.412       .  A
C1655      N1662   1.448       .  S
C1656      C1657   1.408       .  A
C1656      H1661   1.083       .  S
C1657      C1658   1.413       .  A
C1658      N1659   1.438       .  S
N1659      O1663   1.262       .  A
N1659      O1664   1.262       .  A
N1662      O1665   1.262       .  A
N1662      O1666   1.263       .  A
C1667      C1668   1.407       .  A
C1667      C1672   1.411       .  A
C1667      H1674   1.082       .  S
C1668      C1669   1.422       .  A
C1669      C1670   1.394       .  A
C1669      N1676   1.435       .  S
C1670      C1671   1.396       .  A
C1670      H1675   1.084       .  S
C1671      C1672   1.416       .  A
C1672      N1673   1.439       .  S
N1673      O1677   1.262       .  A
N1673      O1678   1.262       .  A
N1676      O1679   1.263       .  A
N1676      O1680   1.262       .  A
C1681      C1682   1.398       .  A
C1681      C1686   1.400       .  A
C1681      H1688   1.085       .  S
C1682      C1683   1.414       .  A
C1683      C1684   1.408       .  A
C1683      N1690   1.445       .  S
C1684      C1685   1.411       .  A
C1684      H1689   1.081       .  S
C1685      C1686   1.421       .  A
C1686      N1687   1.434       .  S
N1687      O1691   1.262       .  A
N1687      O1692   1.262       .  A
N1690      O1693   1.262       .  A
N1690      O1694   1.263       .  A
C1695      C1696   1.406       .  A
C1695      C1700   1.399       .  A
C1695      H1702   1.084       .  S
C1696      C1697   1.412       .  A
C1697      C1698   1.405       .  A
C1697      N1704   1.432       .  S
C1698      C1699   1.406       .  A
C1698      H1703   1.084       .  S
C1699      C1700   1.415       .  A
C1700      N1701   1.437       .  S
N1701      O1705   1.263       .  A
N1701      O1706   1.263       .  A
N1704      O1707   1.262       .  A
N1704      O1708   1.262       .  A
C1709      C1710   1.400       .  A
C1709      C1714   1.397       .  A
C1709      H1716   1.079       .  S
C1710      C1711   1.415       .  A
C1711      C1712   1.411       .  A
C1711      N1718   1.444       .  S
C1712      C1713   1.410       .  A
C1712      H1717   1.083       .  S
C1713      C1714   1.413       .  A
C1714      N1715   1.438       .  S
N1715      O1719   1.263       .  A
N1715      O1720   1.262       .  A
N1718      O1721   1.262       .  A
N1718      O1722   1.263       .  A
C1723      C1724   1.406       .  A
C1723      C1728   1.411       .  A
C1723      H1730   1.083       .  S
C1724      C1725   1.419       .  A
C1725      C1726   1.395       .  A
C1725      N1732   1.433       .  S
C1726      C1727   1.395       .  A
C1726      H1731   1.085       .  S
C1727      C1728   1.419       .  A
C1728      N1729   1.445       .  S
N1729      O1733   1.263       .  A
N1729      O1734   1.262       .  A
N1732      O1735   1.263       .  A
N1732      O1736   1.262       .  A
C1737      C1738   1.410       .  A
C1737      C1742   1.411       .  A
C1737      H1744   1.083       .  S
C1739      C1740   1.395       .  A
C1739      N1746   1.433       .  S
C1740      H1745   1.083       .  S
C1741      C1742   1.416       .  A
C1742      N1743   1.441       .  S
N1743      O1747   1.263       .  A
N1743      O1748   1.263       .  A
N1746      O1750   1.262       .  A
C1751      C1752   1.406       .  A
C1751      C1756   1.403       .  A
C1751      H1758   1.083       .  S
C1753      C1754   1.402   1_545  A
C1753      N1760   1.439   1_545  S
C1754      H1759   1.084       .  S
C1755      C1756   1.413       .  A
C1756      N1757   1.437       .  S
N1757      O1761   1.263       .  A
N1757      O1762   1.262       .  A
N1760      O1763   1.263       .  A
N1760      O1764   1.263       .  A
C1765      C1770   1.404   1_545  A
C1765      H1772   1.083   1_545  S
C1766      C1767   1.417       .  A
C1767      C1768   1.401       .  A
C1767      N1774   1.437       .  S
C1768      C1769   1.401       .  A
C1768      H1773   1.084       .  S
C1770      N1771   1.443       .  S
N1771      O1775   1.263       .  A
N1771      O1776   1.263       .  A
N1774      O1777   1.262       .  A
N1774      O1778   1.263       .  A
C1779      C1784   1.403       .  A
C1779      H1786   1.084       .  S
C1780      C1781   1.416       .  A
C1781      C1782   1.406       .  A
C1781      N1788   1.442       .  S
C1782      C1783   1.407       .  A
C1782      H1787   1.083       .  S
C1784      N1785   1.439       .  S
N1785      O1789   1.263       .  A
N1785      O1790   1.263       .  A
N1788      O1791   1.263       .  A
N1788      O1792   1.263       .  A
C1793      C1798   1.406       .  A
C1793      H1800   1.082       .  S
C1795      C1796   1.403       .  A
C1796      C1797   1.397       .  A
C1796      H1801   1.084       .  S
C1797      C1798   1.415       .  A
C1798      N1799   1.440       .  S
N1799      O1803   1.263       .  A
N1802      O1806   1.263       .  A
C1807      C1808   1.408       .  A
C1807      C1812   1.411       .  A
C1807      H1814   1.083       .  S
C1809      C1810   1.394       .  A
C1809      N1816   1.433       .  S
C1810      H1815   1.085       .  S
C1811      C1812   1.417       .  A
C1812      N1813   1.441       .  S
N1813      O1817   1.263       .  A
N1813      O1818   1.263       .  A
N1816      O1819   1.263       .  A
N1816      O1820   1.262       .  A
C1821      C1822   1.410       .  A
C1821      C1826   1.414       .  A
C1821      H1828   1.083       .  S
C1823      C1824   1.393       .  A
C1823      N1830   1.432       .  S
C1824      C1825   1.395   1_655  A
C1824      H1829   1.085       .  S
C1826      N1827   1.440       .  S
N1827      O1831   1.263       .  A
N1827      O1832   1.262       .  A
N1830      O1833   1.262       .  A
N1830      O1834   1.263       .  A
C1835      C1840   1.403       .  A
C1835      H1842   1.085       .  S
C1836      C1837   1.413       .  A
C1837      C1838   1.406       .  A
C1837      N1844   1.443       .  S
C1838      C1839   1.411       .  A
C1838      H1843   1.083       .  S
C1840      N1841   1.435       .  S
N1841      O1845   1.263       .  A
N1841      O1846   1.262       .  A
N1844      O1847   1.262       .  A
N1844      O1848   1.263       .  A
C1849      C1854   1.388       .  A
C1849      H1856   1.082       .  S
C1850      C1851   1.422       .  A
C1851      C1852   1.419       .  A
C1851      N1858   1.437       .  S
C1852      H1857   1.083       .  S
C1853      C1854   1.404       .  A
C1854      N1855   1.437       .  S
N1855      O1859   1.262       .  A
N1855      O1860   1.263       .  A
N1858      O1861   1.262       .  A
N1858      O1862   1.263       .  A
C1863      C1864   1.404       .  A
C1863      C1868   1.410       .  A
C1863      H1870   1.084       .  S
C1864      C1865   1.415       .  A
C1865      C1866   1.396       .  A
C1865      N1872   1.438       .  S
C1866      C1867   1.403       .  A
C1866      H1871   1.083       .  S
C1867      C1868   1.417       .  A
C1868      N1869   1.434       .  S
N1869      O1873   1.263       .  A
N1869      O1874   1.261       .  A
N1872      O1875   1.263       .  A
C1877      C1882   1.396       .  A
C1877      H1884   1.084       .  S
C1878      C1879   1.417       .  A
C1879      C1880   1.412       .  A
C1879      N1886   1.433       .  S
C1880      H1885   1.083       .  S
C1881      C1882   1.417       .  A
C1882      N1883   1.438       .  S
N1883      O1887   1.263       .  A
N1883      O1888   1.263       .  A
N1886      O1889   1.262       .  A
N1886      O1890   1.262       .  A
C1891      C1892   1.406       .  A
C1891      C1896   1.416       .  A
C1891      H1898   1.083       .  S
C1892      C1893   1.413       .  A
C1893      C1894   1.393       .  A
C1893      N1900   1.439       .  S
C1894      C1895   1.405       .  A
C1894      H1899   1.083       .  S
C1895      C1896   1.421       .  A
C1896      N1897   1.440       .  S
N1897      O1901   1.261       .  A
N1897      O1902   1.263       .  A
N1900      O1904   1.263       .  A
