geometry optimzed in LAMMPS
_audit_creation_date              2020-11-30 
_audit_creation_method            'lammps2cif' 
_symmetry_space_group_name_H-M    'P1' 
_symmetry_Int_Tables_number       1 
_symmetry_cell_setting            triclinic 
loop_ 
_symmetry_equiv_pos_as_xyz 
  x,y,z 
_cell_length_a                    40.97883841 
_cell_length_b                    42.19248029616215 
_cell_length_c                    40.49485629424222 
_cell_angle_alpha                 89.9018793552025 
_cell_angle_beta                  89.46757204486784 
_cell_angle_gamma                 90.68227983816438 
loop_ 
_atom_site_label 
_atom_site_type_symbol 
_atom_site_fract_x 
_atom_site_fract_y 
_atom_site_fract_z 
_atom_site_charge 
O1          O  0.21773830  0.17435996  0.23538965    -0.78100
O2          O  0.27009986  0.29838798  0.20741268    -0.78100
O3          O  0.19722352  0.27476316  0.19800436    -0.78200
O4          O  0.31654417  0.21662620  0.22426528    -0.78100
O5          O  0.21351479  0.31272173  0.23112714    -0.78200
O6          O  0.27359534  0.18957771  0.21217844    -0.78100
O7          O  0.31482562  0.27885890  0.22487866    -0.78100
O8          O  0.20071655  0.20999825  0.20002732    -0.78200
C9          C  0.20429925  0.18149177  0.20835584     1.11600
C10         C  0.30019223  0.29564377  0.20441358     1.11400
C11         C  0.19770887  0.30365461  0.20600800     1.11600
C12         C  0.30275761  0.19629967  0.20656086     1.11500
O13         O  0.27296171  0.16641809  0.27500204    -0.78100
O14         O  0.22623969  0.28137472  0.29331448    -0.78200
O15         O  0.18293579  0.21102098  0.26900231    -0.78100
O16         O  0.28886102  0.28061820  0.29187991    -0.78100
O17         O  0.26947074  0.32487055  0.26931225    -0.78200
O18         O  0.22872819  0.20999997  0.29619569    -0.78100
O19         O  0.29384786  0.21211001  0.29300856    -0.78100
O20         O  0.18052252  0.27521040  0.26699137    -0.78200
Co21       Co  0.25307940  0.20182775  0.25441832     1.51500
Co22       Co  0.25029053  0.28800350  0.25076925     1.51700
Co23       Co  0.19417630  0.24271464  0.23352103     1.51600
Co24       Co  0.29638249  0.24666110  0.25643794     1.51500
O25         O  0.24492417  0.24422246  0.23776762    -1.40100
C26         C  0.29235088  0.18144079  0.29374986     1.11500
C27         C  0.19591283  0.28533405  0.29177690     1.11600
C28         C  0.19834503  0.20513301  0.29515982     1.11500
C29         C  0.28721558  0.31115022  0.29044414     1.11500
O30         O  0.46427832  0.22963549  0.05082878    -0.78100
O31         O  0.04236999  0.28690888  0.04790841    -0.78100
O32         O  0.03680776  0.21357131  0.03625532    -0.78200
O33         O  0.46962238  0.33035463  0.00963730    -0.78100
O34         O  0.08417073  0.23944172  0.03027824    -0.78200
O35         O  0.46079860  0.29369044  0.04763376    -0.78100
O36         O  0.03604715  0.32703997  0.01341497    -0.78100
O37         O  0.47725645  0.19261771  0.01623851    -0.78200
C38         C  0.46425070  0.20073197  0.04328368     1.11600
C39         C  0.04526850  0.31624911  0.04125418     1.11400
C40         C  0.06694092  0.21801918  0.04426149     1.11600
C41         C  0.45920373  0.32198242  0.03813858     1.11500
O42         O  0.43197074  0.28976307  0.48234314    -0.78100
O43         O  0.05784982  0.22669039  0.47048559    -0.78200
O44         O  0.48406698  0.22048488  0.45247530    -0.78100
O45         O  0.03680002  0.29463449  0.44866207    -0.78100
O46         O  0.07442456  0.28805209  0.48515961    -0.78200
O47         O  0.43933187  0.22627952  0.48295917    -0.78100
O48         O  0.47211522  0.29669168  0.44664501    -0.78100
O49         O  0.03054425  0.18168137  0.47851317    -0.78200
Co50       Co  0.45225475  0.26009040  0.51577412     1.51500
Co51       Co  0.04639760  0.25648331  0.51077994     1.51700
Co52       Co  0.01096943  0.21983961  0.49259752     1.51600
Co53       Co  0.00357185  0.30939396  0.48011372     1.51500
O54         O  0.99936745  0.26523009  0.49985746    -1.40100
C55         C  0.44224378  0.29683902  0.45349039     1.11500
C56         C  0.05395761  0.19663863  0.46497079     1.11600
C57         C  0.45351145  0.21710972  0.45656336     1.11500
C58         C  0.06599860  0.29773505  0.45693847     1.11500
C59         C  0.40005357  0.15636171  0.39938144     0.88500
C60         C  0.37546868  0.16952052  0.37472315    -0.51700
C61         C  0.35815623  0.14654914  0.35857844     0.11400
C62         C  0.36741181  0.11246894  0.36829071     0.22400
C63         C  0.37979149  0.13475925  0.42241361    -0.52500
C64         C  0.36244658  0.11192897  0.40614309     0.11500
C65         C  0.42172722  0.13410097  0.37935262    -0.52000
C66         C  0.40489896  0.11110937  0.36294134     0.12100
H67         H  0.37160436  0.19468894  0.37089198     0.16600
H68         H  0.35340914  0.09382140  0.35499189     0.02400
H69         H  0.37838603  0.13793889  0.44902215     0.16900
H70         H  0.44812171  0.13664457  0.37781181     0.16700
O71         O  0.20598261  0.03262159  0.47082808    -0.78100
O72         O  0.20085629  0.46276509  0.02624908    -0.78100
O73         O  0.23796516  0.45991378  0.42185734    -0.78200
O74         O  0.21851177  0.03109101  0.04233329    -0.78100
O75         O  0.20182109  0.45202896  0.46159963    -0.78200
O76         O  0.22963020  0.07552970  0.01512351    -0.78100
O77         O  0.23489262  0.47346285  0.06526800    -0.78100
O78         O  0.23603248  0.02511245  0.42590570    -0.78200
C79         C  0.21015811  0.03532363  0.44002949     1.11600
C80         C  0.20733903  0.46287225  0.05628332     1.11400
C81         C  0.21026352  0.44972282  0.43180692     1.11600
C82         C  0.21331166  0.06066646  0.03692537     1.11500
O83         O  0.28713944  0.04620855  0.02562424    -0.78100
O84         O  0.26510716  0.42314701  0.46582318    -0.78200
O85         O  0.30304691  0.02394874  0.45306965    -0.78100
O86         O  0.29881753  0.47702864  0.03513012    -0.78100
O87         O  0.26701336  0.43440179  0.03179188    -0.78200
O88         O  0.26895672  0.06164233  0.46309497    -0.78100
O89         O  0.27615857  0.02489774  0.07440268    -0.78100
O90         O  0.30105393  0.46060823  0.45274995    -0.78200
Co91       Co  0.24504633  0.03650136  0.49825202     1.51500
Co92       Co  0.23417481  0.44593367  0.49626144     1.51700
Co93       Co  0.26900902  0.99252713  0.44142180     1.51600
Co94       Co  0.26024323  0.00410598  0.03581756     1.51500
O95         O  0.25238698  0.99037023  0.48881934    -1.40100
C96         C  0.29202714  0.04488047  0.05707000     1.11500
C97         C  0.29296988  0.43186294  0.45503237     1.11600
C98         C  0.29628987  0.05281203  0.45211881     1.11500
C99         C  0.29384468  0.44782667  0.04016775     1.11500
C100        C  0.09919219  0.38968331  0.34098873     0.88500
C101        C  0.12334909  0.41272246  0.35716927    -0.51700
C102        C  0.14615792  0.39829241  0.37602096     0.11400
C103        C  0.14283745  0.36183063  0.37714892     0.22400
C104        C  0.12051379  0.36618325  0.32169354    -0.52500
C105        C  0.14318731  0.35141248  0.34079736     0.11500
C106        C  0.08453143  0.37008343  0.36967016    -0.52000
C107        C  0.10748784  0.35534021  0.38845151     0.12100
H108        H  0.12234219  0.43830052  0.35418943     0.16600
H109        H  0.16138799  0.34996240  0.39257042     0.02400
H110        H  0.11740082  0.36108826  0.29561615     0.16900
H111        H  0.05846174  0.36742312  0.37416042     0.16700
O112        O  0.46630353  0.07151147  0.27139491    -0.78100
O113        O  0.02772842  0.44138147  0.25851750    -0.78100
O114        O  0.42019347  0.48071214  0.27693227    -0.78200
O115        O  0.04458889  0.04030351  0.29945750    -0.78100
O116        O  0.46840158  0.45771691  0.28105307    -0.78200
O117        O  0.03272465  0.07982471  0.26613581    -0.78100
O118        O  0.04079356  0.47584764  0.29612669    -0.78100
O119        O  0.46061935  0.02721143  0.30036083    -0.78200
C120        C  0.45683873  0.05683832  0.29747356     1.11600
C121        C  0.04054339  0.44761991  0.28609050     1.11400
C122        C  0.43818949  0.45985307  0.28978928     1.11600
C123        C  0.04446397  0.06951911  0.29304309     1.11500
O124        O  0.03070638  0.05310794  0.20002579    -0.78100
O125        O  0.47453037  0.43233866  0.21932956    -0.78200
O126        O  0.42879614  0.03489281  0.23845610    -0.78100
O127        O  0.06522845  0.47896668  0.22764979    -0.78100
O128        O  0.02062130  0.47498556  0.19753600    -0.78200
O129        O  0.46657190  0.04709574  0.20286034    -0.78100
O130        O  0.07168685  0.04302417  0.23299755    -0.78100
O131        O  0.44793525  0.47745367  0.21544962    -0.78200
Co132      Co  0.99921777  0.06003838  0.23547333     1.51500
Co133      Co  0.99383496  0.46940321  0.23784504     1.51700
Co134      Co  0.45778034  0.00194192  0.25946877     1.51600
Co135      Co  0.05235074  0.00969561  0.26389391     1.51500
O136        O  0.00485042  0.01434372  0.24988441    -1.40100
C137        C  0.06071197  0.05288096  0.20560909     1.11500
C138        C  0.45198891  0.44835345  0.20657179     1.11600
C139        C  0.43716621  0.04757595  0.21128893     1.11500
C140        C  0.05093752  0.47091021  0.20101832     1.11500
C141        C  0.35347682  0.35380063  0.14239344     0.88500
C142        C  0.37919931  0.33979526  0.11891386    -0.51700
C143        C  0.39664718  0.36235135  0.10169402     0.11400
C144        C  0.38680101  0.39657164  0.10938858     0.22400
C145        C  0.37254322  0.37681669  0.16437632    -0.52500
C146        C  0.39019518  0.39905579  0.14722793     0.11500
C147        C  0.33237453  0.37466562  0.12050287    -0.52000
C148        C  0.34972851  0.39681477  0.10293921     0.12100
H149        H  0.38319183  0.31453020  0.11611436     0.16600
H150        H  0.40102091  0.41472827  0.09526751     0.02400
H151        H  0.37303765  0.37493808  0.19113866     0.16900
H152        H  0.30612191  0.37153621  0.11826252     0.16700
C153        C  0.11026567  0.15205541  0.10148335     0.88500
C154        C  0.13620775  0.16387393  0.12556021    -0.51700
C155        C  0.15359431  0.13998010  0.13932584     0.11400
C156        C  0.14395344  0.10679841  0.12775534     0.22400
C157        C  0.12874108  0.13220850  0.07613824    -0.52500
C158        C  0.14634772  0.10868594  0.09001081     0.11500
C159        C  0.08933638  0.12826291  0.12152301    -0.52000
C160        C  0.10736280  0.10466843  0.13543424     0.12100
H161        H  0.13979435  0.18867374  0.13197381     0.16600
H162        H  0.15853198  0.08762036  0.13905742     0.02400
H163        H  0.12889357  0.13702903  0.04974565     0.16900
H164        H  0.06326604  0.13072047  0.12568644     0.16700
C165        C  0.40403552  0.14333901  0.10029114     0.88500
C166        C  0.41850662  0.12080271  0.12609315    -0.51700
C167        C  0.39538714  0.10495110  0.14460265     0.11400
C168        C  0.36011520  0.11308889  0.13567772     0.22400
C169        C  0.38095849  0.12238177  0.07978673    -0.52500
C170        C  0.35809491  0.10641437  0.09837203     0.11500
C171        C  0.38157829  0.16522569  0.12014108    -0.52000
C172        C  0.35870016  0.14943641  0.13872079     0.12100
H173        H  0.44455051  0.11768951  0.12942183     0.16600
H174        H  0.34143776  0.10022483  0.15079779     0.02400
H175        H  0.38285800  0.11999848  0.05312573     0.16900
H176        H  0.38407454  0.19089712  0.12013842     0.16700
C177        C  0.14203450  0.36379931  0.15095993     0.88500
C178        C  0.16424634  0.38495086  0.12984343    -0.51700
C179        C  0.14793639  0.40511604  0.10993071     0.11400
C180        C  0.11032365  0.40157157  0.11204319     0.22400
C181        C  0.11960070  0.38674511  0.16948809    -0.52500
C182        C  0.10312547  0.40673581  0.14908237     0.11500
C183        C  0.11991854  0.34622826  0.12664954    -0.52000
C184        C  0.10298916  0.36571344  0.10623766     0.12100
H185        H  0.19070598  0.38513815  0.13173045     0.16600
H186        H  0.09699451  0.41786417  0.09549345     0.02400
H187        H  0.11782339  0.38787411  0.19625377     0.16900
H188        H  0.11756930  0.32055708  0.12589749     0.16700
C189        C  0.15025855  0.09946245  0.39524175     0.88500
C190        C  0.17060187  0.12338702  0.37503112    -0.51700
C191        C  0.15257629  0.14680157  0.36118972     0.11400
C192        C  0.11565183  0.14403999  0.36855127     0.22400
C193        C  0.13152333  0.11955566  0.42058080    -0.52500
C194        C  0.11337211  0.14291286  0.40651381     0.11500
C195        C  0.12423320  0.08700085  0.37154286    -0.52000
C196        C  0.10602841  0.11023478  0.35758749     0.12100
H197        H  0.19690164  0.12188082  0.37183152     0.16600
H198        H  0.10090260  0.16297677  0.35707653     0.02400
H199        H  0.13234292  0.11555353  0.44707153     0.16900
H200        H  0.12052425  0.06197989  0.36622885     0.16700
C201        C  0.39521994  0.39587141  0.35242950     0.88500
C202        C  0.41462909  0.36903648  0.36848491    -0.51700
C203        C  0.39513976  0.34761790  0.38515435     0.11400
C204        C  0.35858898  0.35474887  0.38381600     0.22400
C205        C  0.37020022  0.37938639  0.33051205    -0.52500
C206        C  0.35094707  0.35822495  0.34704286     0.11500
C207        C  0.37527983  0.41026638  0.38074091    -0.52000
C208        C  0.35629061  0.38847845  0.39710581     0.12100
H209        H  0.44110995  0.36816895  0.36845727     0.16600
H210        H  0.34271326  0.33733029  0.39716593     0.02400
H211        H  0.36730505  0.38461103  0.30439487     0.16900
H212        H  0.37557583  0.43534680  0.38682549     0.16700
C213        C  0.08044341  0.10253573  0.33440969    -0.11300
C214        C  0.06164641  0.09042663  0.31518236    -0.12800
C215        C  0.09421365  0.08284525  0.15958765    -0.11300
C216        C  0.08163572  0.06715848  0.18118065    -0.12800
C217        C  0.42558450  0.43879010  0.31470657    -0.11300
C218        C  0.41416249  0.41951686  0.33364792    -0.12800
C219        C  0.08354496  0.43228608  0.16208333    -0.11300
C220        C  0.06842273  0.45203110  0.17727541    -0.12800
C221        C  0.41275260  0.42001012  0.16402924    -0.11300
C222        C  0.43120671  0.43426230  0.18197250    -0.12800
C223        C  0.40377917  0.08256373  0.17027888    -0.11300
C224        C  0.41515768  0.06492904  0.19065555    -0.12800
C225        C  0.05746551  0.42362728  0.30470188    -0.11300
C226        C  0.07489564  0.40645956  0.32070268    -0.12800
C227        C  0.33504441  0.08411901  0.08419167    -0.11300
C228        C  0.31583066  0.06563401  0.07205219    -0.12800
C229        C  0.18831082  0.07624208  0.05490929    -0.11300
C230        C  0.16832623  0.09001225  0.07093802    -0.12800
C231        C  0.18465270  0.44738714  0.07837570    -0.11300
C232        C  0.16574260  0.42977725  0.09252112    -0.12800
C233        C  0.31465521  0.40958769  0.44080744    -0.11300
C234        C  0.33402049  0.39724517  0.42277609    -0.12800
C235        C  0.18754694  0.05453088  0.42205626    -0.11300
C236        C  0.17003633  0.07408337  0.40974206    -0.12800
C237        C  0.33399415  0.41627342  0.07851492    -0.11300
C238        C  0.31710441  0.43061286  0.05942836    -0.12800
C239        C  0.17030834  0.41644460  0.39398445    -0.11300
C240        C  0.18908389  0.43249549  0.40985153    -0.12800
C241        C  0.42182354  0.08931148  0.34114264    -0.11300
C242        C  0.43828774  0.07374192  0.32228106    -0.12800
C243        C  0.33905044  0.09150597  0.42303581    -0.11300
C244        C  0.31917683  0.07477542  0.43710800    -0.12800
C245        C  0.09254563  0.17785698  0.08587053    -0.11300
C246        C  0.08067280  0.19791072  0.06877118    -0.12800
C247        C  0.07994857  0.35239614  0.08248348    -0.11300
C248        C  0.06261417  0.33708341  0.06395233    -0.12800
C249        C  0.42176000  0.35429192  0.07804343    -0.11300
C250        C  0.44105158  0.34315321  0.05874929    -0.12800
C251        C  0.09879562  0.33353730  0.41484108    -0.11300
C252        C  0.08742885  0.31567616  0.43543196    -0.12800
C253        C  0.40799644  0.32465287  0.40778242    -0.11300
C254        C  0.42092145  0.30929000  0.42897013    -0.12800
C255        C  0.09310879  0.16396263  0.42577805    -0.11300
C256        C  0.07555949  0.18008850  0.44285334    -0.12800
C257        C  0.42860527  0.16114148  0.08028696    -0.11300
C258        C  0.44653447  0.17801795  0.06370139    -0.12800
C259        C  0.41881287  0.18090554  0.41687900    -0.11300
C260        C  0.43491690  0.19906331  0.43317521    -0.12800
C261        C  0.32464445  0.34227272  0.33098184    -0.11300
C262        C  0.30507614  0.32913792  0.31385928    -0.12800
C263        C  0.18168744  0.18867554  0.32162861    -0.11300
C264        C  0.16749883  0.17110134  0.34064000    -0.12800
C265        C  0.32072540  0.17997200  0.18117342    -0.11300
C266        C  0.33708996  0.16576562  0.16124578    -0.12800
C267        C  0.17830138  0.32561715  0.18788415    -0.11300
C268        C  0.16100570  0.34287423  0.17223129    -0.12800
C269        C  0.33431780  0.33023905  0.16153987    -0.11300
C270        C  0.31826775  0.31326339  0.17967450    -0.12800
C271        C  0.31235101  0.16480852  0.31703866    -0.11300
C272        C  0.33239893  0.15444228  0.33583231    -0.12800
C273        C  0.17951990  0.30615380  0.31449495    -0.11300
C274        C  0.16382863  0.32647982  0.32816712    -0.12800
C275        C  0.19163214  0.15793242  0.18691142    -0.11300
C276        C  0.17623067  0.14591210  0.16522460    -0.12800
O277        O  0.21774733  0.17434545  0.73538015    -0.78100
O278        O  0.27011996  0.29837394  0.70741544    -0.78100
O279        O  0.19724479  0.27474977  0.69798879    -0.78200
O280        O  0.31655711  0.21660722  0.72427612    -0.78100
O281        O  0.21352849  0.31270603  0.73111791    -0.78200
O282        O  0.27360860  0.18956348  0.71217757    -0.78100
O283        O  0.31484131  0.27884014  0.72488784    -0.78100
O284        O  0.20073464  0.20998296  0.70001232    -0.78200
C285        C  0.20431369  0.18147642  0.70834343     1.11600
C286        C  0.30021269  0.29562711  0.70442111     1.11400
C287        C  0.19772698  0.30364041  0.70599555     1.11600
C288        C  0.30277241  0.19628375  0.70656615     1.11500
O289        O  0.27296335  0.16640260  0.77500076    -0.78100
O290        O  0.22623992  0.28135752  0.79330698    -0.78200
O291        O  0.18293925  0.21100857  0.76898310    -0.78100
O292        O  0.28886307  0.28060396  0.79188372    -0.78100
O293        O  0.26947329  0.32485533  0.76931324    -0.78200
O294        O  0.22872577  0.20998569  0.79618686    -0.78100
O295        O  0.29384271  0.21209443  0.79301450    -0.78100
O296        O  0.18052802  0.27519695  0.76697356    -0.78200
Co297      Co  0.25308522  0.20181284  0.75441425     1.51500
Co298      Co  0.25029993  0.28798780  0.75076698     1.51700
Co299      Co  0.19418842  0.24270099  0.73350442     1.51600
Co300      Co  0.29638981  0.24664442  0.75644413     1.51500
O301        O  0.24493527  0.24420777  0.73776245    -1.40100
C302        C  0.29234997  0.18142506  0.79375132     1.11500
C303        C  0.19591341  0.28531784  0.79176382     1.11600
C304        C  0.19834204  0.20512323  0.79514503     1.11500
C305        C  0.28721722  0.31113609  0.79044634     1.11500
O306        O  0.46430171  0.22962987  0.55083023    -0.78100
O307        O  0.04239463  0.28690147  0.54790172    -0.78100
O308        O  0.03683358  0.21356449  0.53625092    -0.78200
O309        O  0.46964028  0.33034543  0.50962940    -0.78100
O310        O  0.08419607  0.23943545  0.53026871    -0.78200
O311        O  0.46082249  0.29368380  0.54762933    -0.78100
O312        O  0.03606552  0.32703177  0.51340800    -0.78100
O313        O  0.47727936  0.19261043  0.51624159    -0.78200
C314        C  0.46427358  0.20072600  0.54328643     1.11600
C315        C  0.04529003  0.31624183  0.54124661     1.11400
C316        C  0.06696795  0.21801228  0.54425285     1.11600
C317        C  0.45922392  0.32197460  0.53813205     1.11500
O318        O  0.43195011  0.28977550  0.98234796    -0.78100
O319        O  0.05782912  0.22670168  0.97049018    -0.78200
O320        O  0.48404925  0.22049535  0.95247524    -0.78100
O321        O  0.03678209  0.29464961  0.94866599    -0.78100
O322        O  0.07440469  0.28806063  0.98516514    -0.78200
O323        O  0.43931143  0.22628993  0.98295521    -0.78100
O324        O  0.47209513  0.29670673  0.94665068    -0.78100
O325        O  0.03052492  0.18169124  0.97851362    -0.78200
Co326      Co  0.45223276  0.26009894  0.01577485     1.51500
Co327      Co  0.04637502  0.25649212  0.01078536     1.51700
Co328      Co  0.01094829  0.21984853  0.99259933     1.51600
Co329      Co  0.00355304  0.30940518  0.98011978     1.51500
O330        O  0.99934618  0.26523943  0.99985974    -1.40100
C331        C  0.44222379  0.29685605  0.95349687     1.11500
C332        C  0.05393725  0.19665065  0.96497175     1.11600
C333        C  0.45349377  0.21711812  0.95656128     1.11500
C334        C  0.06598128  0.29774518  0.95694322     1.11500
C335        C  0.40005641  0.15635335  0.89937644     0.88500
C336        C  0.37547332  0.16950901  0.87471460    -0.51700
C337        C  0.35816389  0.14653574  0.85856978     0.11400
C338        C  0.36742064  0.11245687  0.86828467     0.22400
C339        C  0.37979306  0.13475133  0.92240739    -0.52500
C340        C  0.36245058  0.11191981  0.90613659     0.11500
C341        C  0.42173386  0.13409267  0.87935115    -0.52000
C342        C  0.40490872  0.11109930  0.86293859     0.12100
H343        H  0.37160620  0.19467693  0.87088294     0.16600
H344        H  0.35341988  0.09380813  0.85498561     0.02400
H345        H  0.37838174  0.13793471  0.94901517     0.16900
H346        H  0.44812823  0.13663875  0.87781211     0.16700
O347        O  0.20596729  0.03264669  0.97083138    -0.78100
O348        O  0.20087412  0.46275162  0.52625041    -0.78100
O349        O  0.23795141  0.45993237  0.92185672    -0.78200
O350        O  0.21853436  0.03106921  0.54233478    -0.78100
O351        O  0.20180765  0.45203788  0.96159763    -0.78200
O352        O  0.22964177  0.07550723  0.51511923    -0.78100
O353        O  0.23491387  0.47344359  0.56526810    -0.78100
O354        O  0.23601526  0.02513306  0.92590832    -0.78200
C355        C  0.21014199  0.03534655  0.94003261     1.11600
C356        C  0.20735823  0.46285767  0.55628437     1.11400
C357        C  0.21025325  0.44973137  0.93180557     1.11600
C358        C  0.21332740  0.06064267  0.53692321     1.11500
O359        O  0.28715447  0.04619138  0.52562097    -0.78100
O360        O  0.26509538  0.42316572  0.96582539    -0.78200
O361        O  0.30302940  0.02396680  0.95307664    -0.78100
O362        O  0.29883684  0.47700322  0.53512906    -0.78100
O363        O  0.26702721  0.43437980  0.53178904    -0.78200
O364        O  0.26894277  0.06166354  0.96309657    -0.78100
O365        O  0.27618458  0.02487662  0.57440016    -0.78100
O366        O  0.30103829  0.46062987  0.95275273    -0.78200
Co367      Co  0.24503145  0.03652291  0.99825436     1.51500
Co368      Co  0.23416057  0.44595011  0.99626231     1.51700
Co369      Co  0.26899237  0.99254760  0.94142427     1.51600
Co370      Co  0.26026582  0.00408420  0.53581663     1.51500
O371        O  0.25236722  0.99039001  0.98882006    -1.40100
C372        C  0.29204764  0.04486233  0.55706583     1.11500
C373        C  0.29295572  0.43188427  0.95503120     1.11600
C374        C  0.29627477  0.05282989  0.95212051     1.11500
C375        C  0.29386009  0.44780134  0.54016557     1.11500
C376        C  0.09920220  0.38967457  0.84098169     0.88500
C377        C  0.12336320  0.41271050  0.85716006    -0.51700
C378        C  0.14616909  0.39827862  0.87601362     0.11400
C379        C  0.14284234  0.36181647  0.87714405     0.22400
C380        C  0.12051902  0.36616965  0.82168803    -0.52500
C381        C  0.14318997  0.35139566  0.84079223     0.11500
C382        C  0.08453798  0.37007931  0.86966480    -0.52000
C383        C  0.10749093  0.35533279  0.88844772     0.12100
H384        H  0.12235961  0.43828873  0.85417933     0.16600
H385        H  0.16139067  0.34994621  0.89256646     0.02400
H386        H  0.11740509  0.36107434  0.79561081     0.16900
H387        H  0.05846773  0.36742496  0.87415564     0.16700
O388        O  0.46631090  0.07150467  0.77138341    -0.78100
O389        O  0.02773884  0.44137606  0.75851319    -0.78100
O390        O  0.42020187  0.48070867  0.77691748    -0.78200
O391        O  0.04459844  0.04030213  0.79944579    -0.78100
O392        O  0.46840940  0.45771379  0.78104785    -0.78200
O393        O  0.03273006  0.07982059  0.76612168    -0.78100
O394        O  0.04080691  0.47584459  0.79611927    -0.78100
O395        O  0.46062797  0.02720510  0.80035024    -0.78200
C396        C  0.45684763  0.05683212  0.79746319     1.11600
C397        C  0.04055614  0.44761625  0.78608454     1.11400
C398        C  0.43819596  0.45985120  0.78977935     1.11600
C399        C  0.04446766  0.06951768  0.79303083     1.11500
O400        O  0.03071241  0.05309837  0.70001329    -0.78100
O401        O  0.47454026  0.43232987  0.71932715    -0.78200
O402        O  0.42880553  0.03488468  0.73844627    -0.78100
O403        O  0.06523940  0.47896107  0.72764239    -0.78100
O404        O  0.02063165  0.47497456  0.69753003    -0.78200
O405        O  0.46657987  0.04708371  0.70284881    -0.78100
O406        O  0.07169397  0.04302000  0.73298539    -0.78100
O407        O  0.44794881  0.47744629  0.71543846    -0.78200
Co408      Co  0.99922468  0.06003045  0.73546086     1.51500
Co409      Co  0.99384487  0.46939588  0.73783958     1.51700
Co410      Co  0.45779071  0.00193520  0.75945794     1.51600
Co411      Co  0.05236119  0.00969220  0.76388398     1.51500
O412        O  0.00486041  0.01433749  0.74987525    -1.40100
C413        C  0.06071797  0.05287354  0.70559626     1.11500
C414        C  0.45200153  0.44834484  0.70656461     1.11600
C415        C  0.43717471  0.04756567  0.71127826     1.11500
C416        C  0.05094817  0.47090087  0.70101235     1.11500
C417        C  0.35350054  0.35377935  0.64239744     0.88500
C418        C  0.37922491  0.33977557  0.61891832    -0.51700
C419        C  0.39666768  0.36233302  0.60169465     0.11400
C420        C  0.38681589  0.39655210  0.60938596     0.22400
C421        C  0.37256386  0.37680104  0.66437661    -0.52500
C422        C  0.39021145  0.39904079  0.64722468     0.11500
C423        C  0.33239371  0.37463832  0.62050488    -0.52000
C424        C  0.34974327  0.39678828  0.60293793     0.12100
H425        H  0.38322149  0.31451099  0.61612112     0.16600
H426        H  0.40103196  0.41470962  0.59526220     0.02400
H427        H  0.37306023  0.37492532  0.69113902     0.16900
H428        H  0.30614145  0.37150461  0.61826608     0.16700
C429        C  0.11028856  0.15204180  0.60146877     0.88500
C430        C  0.13623249  0.16385698  0.62554489    -0.51700
C431        C  0.15361310  0.13996089  0.63931357     0.11400
C432        C  0.14396518  0.10677998  0.62774600     0.22400
C433        C  0.12875982  0.13218872  0.57612584    -0.52500
C434        C  0.14636055  0.10866340  0.59000140     0.11500
C435        C  0.08935329  0.12825557  0.62150987    -0.52000
C436        C  0.10737400  0.10465830  0.63542329     0.12100
H437        H  0.13982428  0.18865668  0.63195625     0.16600
H438        H  0.15853897  0.08759977  0.63905051     0.02400
H439        H  0.12891439  0.13700722  0.54973293     0.16900
H440        H  0.06328326  0.13071846  0.62567155     0.16700
C441        C  0.40404974  0.14333358  0.60028685     0.88500
C442        C  0.41851938  0.12079706  0.62608934    -0.51700
C443        C  0.39539879  0.10494427  0.64459612     0.11400
C444        C  0.36012754  0.11308118  0.63566912     0.22400
C445        C  0.38097497  0.12237569  0.57977988    -0.52500
C446        C  0.35811032  0.10640691  0.59836307     0.11500
C447        C  0.38159029  0.16521905  0.62013606    -0.52000
C448        C  0.35871161  0.14942857  0.63871427     0.12100
H449        H  0.44456306  0.11768427  0.62942008     0.16600
H450        H  0.34144975  0.10021594  0.65078769     0.02400
H451        H  0.38287759  0.11999207  0.55311921     0.16900
H452        H  0.38408723  0.19089035  0.62013614     0.16700
C453        C  0.14204919  0.36378899  0.65095716     0.88500
C454        C  0.16426161  0.38494301  0.62984437    -0.51700
C455        C  0.14795220  0.40510901  0.60993241     0.11400
C456        C  0.11033968  0.40156350  0.61204187     0.22400
C457        C  0.11961337  0.38673255  0.66948621    -0.52500
C458        C  0.10313884  0.40672448  0.64908095     0.11500
C459        C  0.11993556  0.34621944  0.62664361    -0.52000
C460        C  0.10300699  0.36570587  0.60623250     0.12100
H461        H  0.19072122  0.38513052  0.63173250     0.16600
H462        H  0.09701128  0.41785707  0.59549254     0.02400
H463        H  0.11783452  0.38785946  0.69625190     0.16900
H464        H  0.11758734  0.32054825  0.62588880     0.16700
C465        C  0.15023942  0.09948109  0.89524262     0.88500
C466        C  0.17058204  0.12340188  0.87502719    -0.51700
C467        C  0.15255639  0.14681424  0.86118238     0.11400
C468        C  0.11563195  0.14405449  0.86854544     0.22400
C469        C  0.13150549  0.11957838  0.92057876    -0.52500
C470        C  0.11335334  0.14293308  0.90650859     0.11500
C471        C  0.12421318  0.08701576  0.87154699    -0.52000
C472        C  0.10600848  0.11024737  0.85758746     0.12100
H473        H  0.19688159  0.12189463  0.87182655     0.16600
H474        H  0.10088266  0.16298948  0.85706762     0.02400
H475        H  0.13232572  0.11558001  0.94707012     0.16900
H476        H  0.12050516  0.06199399  0.86623620     0.16700
C477        C  0.39520787  0.39588464  0.85242122     0.88500
C478        C  0.41461591  0.36905779  0.86849188    -0.51700
C479        C  0.39512482  0.34764268  0.88516330     0.11400
C480        C  0.35857395  0.35476893  0.88381318     0.22400
C481        C  0.37019583  0.37938916  0.83050270    -0.52500
C482        C  0.35094106  0.35823109  0.84703691     0.11500
C483        C  0.37525859  0.41028740  0.88072155    -0.52000
C484        C  0.35626839  0.38850260  0.89708970     0.12100
H485        H  0.44109679  0.36819176  0.86846969     0.16600
H486        H  0.34269729  0.33735303  0.89716582     0.02400
H487        H  0.36730696  0.38460419  0.80438275     0.16900
H488        H  0.37555216  0.43536946  0.88679878     0.16700
C489        C  0.08042865  0.10254408  0.83440539    -0.11300
C490        C  0.06163965  0.09042978  0.81517364    -0.12800
C491        C  0.09421928  0.08283717  0.65957490    -0.11300
C492        C  0.08164024  0.06715073  0.68116708    -0.12800
C493        C  0.42558580  0.43879239  0.81469677    -0.11300
C494        C  0.41415523  0.41952447  0.83363814    -0.12800
C495        C  0.08355726  0.43227403  0.66208176    -0.11300
C496        C  0.06843393  0.45201979  0.67727163    -0.12800
C497        C  0.41276797  0.41999849  0.66402230    -0.11300
C498        C  0.43122135  0.43425239  0.68196466    -0.12800
C499        C  0.40378897  0.08255567  0.67027099    -0.11300
C500        C  0.41516654  0.06491957  0.69064633    -0.12800
C501        C  0.05747937  0.42362405  0.80469559    -0.11300
C502        C  0.07490845  0.40645434  0.82069530    -0.12800
C503        C  0.33506341  0.08410770  0.58418174    -0.11300
C504        C  0.31585105  0.06561917  0.57204482    -0.12800
C505        C  0.18832299  0.07621444  0.55490539    -0.11300
C506        C  0.16833684  0.08998476  0.57093173    -0.12800
C507        C  0.18467023  0.44737722  0.57837760    -0.11300
C508        C  0.16575872  0.42976970  0.59252354    -0.12800
C509        C  0.31463836  0.40961261  0.94079678    -0.11300
C510        C  0.33399970  0.39727233  0.92275966    -0.12800
C511        C  0.18753038  0.05455316  0.92205941    -0.11300
C512        C  0.17001828  0.07410440  0.90974547    -0.12800
C513        C  0.33400551  0.41624335  0.57851284    -0.11300
C514        C  0.31711696  0.43058373  0.55942599    -0.12800
C515        C  0.17031622  0.41643213  0.89398135    -0.11300
C516        C  0.18908318  0.43249161  0.90985018    -0.12800
C517        C  0.42183597  0.08930436  0.84113757    -0.11300
C518        C  0.43829915  0.07373635  0.82227303    -0.12800
C519        C  0.33904453  0.09150680  0.92302803    -0.11300
C520        C  0.31916389  0.07478705  0.93710379    -0.12800
C521        C  0.09257464  0.17784614  0.58585493    -0.11300
C522        C  0.08070303  0.19790234  0.56875841    -0.12800
C523        C  0.07996852  0.35239007  0.58247568    -0.11300
C524        C  0.06263517  0.33707757  0.56394353    -0.12800
C525        C  0.42177876  0.35427716  0.57804071    -0.11300
C526        C  0.44107020  0.34314381  0.55874294    -0.12800
C527        C  0.09879189  0.33353493  0.91484121    -0.11300
C528        C  0.08741732  0.31567982  0.93543454    -0.12800
C529        C  0.40797841  0.32467950  0.90779448    -0.11300
C530        C  0.42090227  0.30931385  0.92898034    -0.12800
C531        C  0.09308820  0.16398245  0.92577141    -0.11300
C532        C  0.07553823  0.18010452  0.94285001    -0.12800
C533        C  0.42862182  0.16113712  0.58028604    -0.11300
C534        C  0.44655419  0.17801331  0.56370339    -0.12800
C535        C  0.41880918  0.18090099  0.91687592    -0.11300
C536        C  0.43490435  0.19906498  0.93317392    -0.12800
C537        C  0.32464401  0.34226932  0.83097711    -0.11300
C538        C  0.30507762  0.32912650  0.81385908    -0.12800
C539        C  0.18167538  0.18867551  0.82161403    -0.11300
C540        C  0.16748019  0.17110877  0.84062757    -0.12800
C541        C  0.32074253  0.17995915  0.68117743    -0.11300
C542        C  0.33710490  0.16575571  0.66124516    -0.12800
C543        C  0.17831792  0.32560321  0.68787434    -0.11300
C544        C  0.16102047  0.34286206  0.67222596    -0.12800
C545        C  0.33434512  0.33021789  0.66154811    -0.11300
C546        C  0.31829366  0.31324452  0.67968402    -0.12800
C547        C  0.31235232  0.16479213  0.81703697    -0.11300
C548        C  0.33240359  0.15442623  0.83582674    -0.12800
C549        C  0.17951665  0.30613468  0.81448318    -0.11300
C550        C  0.16382752  0.32646004  0.82815995    -0.12800
C551        C  0.19164818  0.15791562  0.68689950    -0.11300
C552        C  0.17624848  0.14589194  0.66521336    -0.12800
O553        O  0.21773866  0.67435955  0.23538997    -0.78100
O554        O  0.27009972  0.79838786  0.20741278    -0.78100
O555        O  0.19722354  0.77476266  0.19800447    -0.78200
O556        O  0.31654430  0.71662639  0.22426497    -0.78100
O557        O  0.21351466  0.81272131  0.23112725    -0.78200
O558        O  0.27359559  0.68957752  0.21217850    -0.78100
O559        O  0.31482564  0.77885911  0.22487867    -0.78100
O560        O  0.20071673  0.70999771  0.20002759    -0.78200
C561        C  0.20429949  0.68149126  0.20835620     1.11600
C562        C  0.30019211  0.79564391  0.20441363     1.11400
C563        C  0.19770884  0.80365412  0.20600807     1.11600
C564        C  0.30275778  0.69629970  0.20656069     1.11500
O565        O  0.27296217  0.66641795  0.27500207    -0.78100
O566        O  0.22623971  0.78137439  0.29331463    -0.78200
O567        O  0.18293610  0.71102058  0.26900258    -0.78100
O568        O  0.28886110  0.78061805  0.29187995    -0.78100
O569        O  0.26947065  0.82487036  0.26931240    -0.78200
O570        O  0.22872855  0.70999967  0.29619590    -0.78100
O571        O  0.29384835  0.71210994  0.29300839    -0.78100
O572        O  0.18052255  0.77520995  0.26699150    -0.78200
Co573      Co  0.25307970  0.70182754  0.25441844     1.51500
Co574      Co  0.25029050  0.78800327  0.25076939     1.51700
Co575      Co  0.19417643  0.74271419  0.23352121     1.51600
Co576      Co  0.29638264  0.74666111  0.25643784     1.51500
O577        O  0.24492427  0.74422223  0.23776772    -1.40100
C578        C  0.29235138  0.68144072  0.29374977     1.11500
C579        C  0.19591283  0.78533364  0.29177703     1.11600
C580        C  0.19834537  0.70513274  0.29516010     1.11500
C581        C  0.28721559  0.81115006  0.29044421     1.11500
O582        O  0.46427918  0.72963497  0.05082919    -0.78100
O583        O  0.04237042  0.78690870  0.04790841    -0.78100
O584        O  0.03680862  0.71357111  0.03625533    -0.78200
O585        O  0.46962240  0.83035407  0.00963751    -0.78100
O586        O  0.08417142  0.73944181  0.03027810    -0.78200
O587        O  0.46079901  0.79368993  0.04763410    -0.78100
O588        O  0.03604723  0.82703979  0.01341503    -0.78100
O589        O  0.47725725  0.69261719  0.01623890    -0.78200
C590        C  0.46425155  0.70073145  0.04328411     1.11600
C591        C  0.04526870  0.81624896  0.04125421     1.11400
C592        C  0.06694178  0.71801919  0.04426141     1.11600
C593        C  0.45920391  0.82198188  0.03813885     1.11500
O594        O  0.43197084  0.78976355  0.48234302    -0.78100
O595        O  0.05784986  0.72669063  0.47048568    -0.78200
O596        O  0.48406712  0.72048510  0.45247523    -0.78100
O597        O  0.03680010  0.79463482  0.44866216    -0.78100
O598        O  0.07442460  0.78805227  0.48515972    -0.78200
O599        O  0.43933188  0.72627992  0.48295887    -0.78100
O600        O  0.47211539  0.79669226  0.44664499    -0.78100
O601        O  0.03054428  0.68168162  0.47851328    -0.78200
Co602      Co  0.45225471  0.76009071  0.51577396     1.51500
Co603      Co  0.04639755  0.75648350  0.51078000     1.51700
Co604      Co  0.01096941  0.71983985  0.49259753     1.51600
Co605      Co  0.00357196  0.80939429  0.48011382     1.51500
O606        O  0.99936743  0.76523035  0.49985742    -1.40100
C607        C  0.44224394  0.79683963  0.45349032     1.11500
C608        C  0.05395769  0.69663885  0.46497095     1.11600
C609        C  0.45351157  0.71710997  0.45656319     1.11500
C610        C  0.06599869  0.79773523  0.45693856     1.11500
C611        C  0.40005377  0.65636159  0.39938164     0.88500
C612        C  0.37546922  0.66952037  0.37472305    -0.51700
C613        C  0.35815671  0.64654906  0.35857835     0.11400
C614        C  0.36741192  0.61246885  0.36829093     0.22400
C615        C  0.37979134  0.63475943  0.42241377    -0.52500
C616        C  0.36244638  0.61192918  0.40614328     0.11500
C617        C  0.42172734  0.63410055  0.37935317    -0.52000
C618        C  0.40489908  0.61110898  0.36294189     0.12100
H619        H  0.37160509  0.69468890  0.37089168     0.16600
H620        H  0.35340922  0.59382136  0.35499213     0.02400
H621        H  0.37838572  0.63793924  0.44902233     0.16900
H622        H  0.44812197  0.63664398  0.37781253     0.16700
O623        O  0.20598242  0.53262124  0.47082810    -0.78100
O624        O  0.20085634  0.96276490  0.02624914    -0.78100
O625        O  0.23796478  0.95991376  0.42185736    -0.78200
O626        O  0.21851216  0.53109108  0.04233307    -0.78100
O627        O  0.20182062  0.95202920  0.46159962    -0.78200
O628        O  0.22963069  0.57552964  0.01512310    -0.78100
O629        O  0.23489262  0.97346274  0.06526806    -0.78100
O630        O  0.23603243  0.52511243  0.42590577    -0.78200
C631        C  0.21015797  0.53532342  0.44002953     1.11600
C632        C  0.20733909  0.96287199  0.05628337     1.11400
C633        C  0.21026309  0.94972294  0.43180692     1.11600
C634        C  0.21331219  0.56066653  0.03692510     1.11500
O635        O  0.28713979  0.54620832  0.02562395    -0.78100
O636        O  0.26510645  0.92314687  0.46582322    -0.78200
O637        O  0.30304680  0.52394912  0.45306978    -0.78100
O638        O  0.29881747  0.97702902  0.03513027    -0.78100
O639        O  0.26701361  0.93440197  0.03179175    -0.78200
O640        O  0.26895634  0.56164249  0.46309511    -0.78100
O641        O  0.27615893  0.52489761  0.07440243    -0.78100
O642        O  0.30105350  0.96060786  0.45275007    -0.78200
Co643      Co  0.24504605  0.53650133  0.49825209     1.51500
Co644      Co  0.23417430  0.94593374  0.49626144     1.51700
Co645      Co  0.26900917  0.49252731  0.44142184     1.51600
Co646      Co  0.26024345  0.50410582  0.03581739     1.51500
O647        O  0.25238714  0.49037027  0.48881941    -1.40100
C648        C  0.29202753  0.54488027  0.05706971     1.11500
C649        C  0.29296924  0.93186263  0.45503247     1.11600
C650        C  0.29628956  0.55281236  0.45211894     1.11500
C651        C  0.29384483  0.94782698  0.04016770     1.11500
C652        C  0.09919210  0.88968304  0.34098852     0.88500
C653        C  0.12334894  0.91272227  0.35716902    -0.51700
C654        C  0.14615782  0.89829231  0.37602072     0.11400
C655        C  0.14283746  0.86183053  0.37714872     0.22400
C656        C  0.12051377  0.86618303  0.32169335    -0.52500
C657        C  0.14318733  0.85141232  0.34079718     0.11500
C658        C  0.08453142  0.87008316  0.36966999    -0.52000
C659        C  0.10748789  0.85534004  0.38845135     0.12100
H660        H  0.12234194  0.93830033  0.35418918     0.16600
H661        H  0.16138804  0.84996238  0.39257024     0.02400
H662        H  0.11740079  0.86108799  0.29561596     0.16900
H663        H  0.05846174  0.86742279  0.37416028     0.16700
O664        O  0.46630348  0.57151129  0.27139548    -0.78100
O665        O  0.02772799  0.94138123  0.25851758    -0.78100
O666        O  0.42019310  0.98071273  0.27693206    -0.78200
O667        O  0.04458924  0.54030372  0.29945744    -0.78100
O668        O  0.46840102  0.95771704  0.28105283    -0.78200
O669        O  0.03272447  0.57982497  0.26613600    -0.78100
O670        O  0.04079310  0.97584735  0.29612683    -0.78100
O671        O  0.46061946  0.52721107  0.30036116    -0.78200
C672        C  0.45683877  0.55683798  0.29747406     1.11600
C673        C  0.04054295  0.94761963  0.28609060     1.11400
C674        C  0.43818897  0.95985357  0.28978913     1.11600
C675        C  0.04446408  0.56951935  0.29304314     1.11500
O676        O  0.03070602  0.55310845  0.20002586    -0.78100
O677        O  0.47453005  0.93233864  0.21932939    -0.78200
O678        O  0.42879602  0.53489258  0.23845654    -0.78100
O679        O  0.06522838  0.97896631  0.22765009    -0.78100
O680        O  0.02062137  0.97498528  0.19753605    -0.78200
O681        O  0.46657164  0.54709584  0.20286077    -0.78100
O682        O  0.07168671  0.54302455  0.23299731    -0.78100
O683        O  0.44793504  0.97745374  0.21544950    -0.78200
Co684      Co  0.99921754  0.56003855  0.23547364     1.51500
Co685      Co  0.99383474  0.96940311  0.23784494     1.51700
Co686      Co  0.45778050  0.50194173  0.25946897     1.51600
Co687      Co  0.05235091  0.50969591  0.26389373     1.51500
O688        O  0.00485047  0.51434386  0.24988455    -1.40100
C689        C  0.06071166  0.55288131  0.20560892     1.11500
C690        C  0.45198865  0.94835352  0.20657164     1.11600
C691        C  0.43716596  0.54757590  0.21128942     1.11500
C692        C  0.05093757  0.97090987  0.20101855     1.11500
C693        C  0.35347657  0.85380075  0.14239325     0.88500
C694        C  0.37919912  0.83979520  0.11891386    -0.51700
C695        C  0.39664715  0.86235116  0.10169399     0.11400
C696        C  0.38680108  0.89657154  0.10938832     0.22400
C697        C  0.37254293  0.87681688  0.16437611    -0.52500
C698        C  0.39019506  0.89905585  0.14722768     0.11500
C699        C  0.33237445  0.87466573  0.12050247    -0.52000
C700        C  0.34972860  0.89681476  0.10293881     0.12100
H701        H  0.38319158  0.81453013  0.11611452     0.16600
H702        H  0.40102109  0.91472806  0.09526723     0.02400
H703        H  0.37303719  0.87493842  0.19113845     0.16900
H704        H  0.30612180  0.87153645  0.11826207     0.16700
C705        C  0.11026643  0.65205543  0.10148336     0.88500
C706        C  0.13620830  0.66387366  0.12556059    -0.51700
C707        C  0.15359460  0.63997966  0.13932623     0.11400
C708        C  0.14395370  0.60679811  0.12775534     0.22400
C709        C  0.12874202  0.63220866  0.07613825    -0.52500
C710        C  0.14634840  0.60868592  0.09001085     0.11500
C711        C  0.08933683  0.62826286  0.12152261    -0.52000
C712        C  0.10736297  0.60466820  0.13543384     0.12100
H713        H  0.13979501  0.68867343  0.13197436     0.16600
H714        H  0.15853204  0.58761989  0.13905743     0.02400
H715        H  0.12889479  0.63702937  0.04974578     0.16900
H716        H  0.06326648  0.63072055  0.12568585     0.16700
C717        C  0.40403597  0.64333868  0.10029139     0.88500
C718        C  0.41850682  0.62080241  0.12609362    -0.51700
C719        C  0.39538710  0.60495094  0.14460296     0.11400
C720        C  0.36011527  0.61308878  0.13567766     0.22400
C721        C  0.38095905  0.62238142  0.07978677    -0.52500
C722        C  0.35809527  0.60641413  0.09837196     0.11500
C723        C  0.38157862  0.66522552  0.12014107    -0.52000
C724        C  0.35870028  0.64943631  0.13872062     0.12100
H725        H  0.44455058  0.61768914  0.12942253     0.16600
H726        H  0.34143766  0.60022478  0.15079762     0.02400
H727        H  0.38285875  0.61999809  0.05312590     0.16900
H728        H  0.38407495  0.69089684  0.12013838     0.16700
C729        C  0.14203458  0.86379894  0.15096002     0.88500
C730        C  0.16424649  0.88495038  0.12984343    -0.51700
C731        C  0.14793652  0.90511565  0.10993078     0.11400
C732        C  0.11032375  0.90157138  0.11204343     0.22400
C733        C  0.11960098  0.88674483  0.16948830    -0.52500
C734        C  0.10312577  0.90673561  0.14908266     0.11500
C735        C  0.11991844  0.84622800  0.12664971    -0.52000
C736        C  0.10298909  0.86571328  0.10623791     0.12100
H737        H  0.19070605  0.88513753  0.13173032     0.16600
H738        H  0.09699462  0.91786406  0.09549376     0.02400
H739        H  0.11782373  0.88787378  0.19625398     0.16900
H740        H  0.11756914  0.82055683  0.12589758     0.16700
C741        C  0.15025849  0.59946244  0.39524202     0.88500
C742        C  0.17060191  0.62338698  0.37503148    -0.51700
C743        C  0.15257641  0.64680162  0.36119012     0.11400
C744        C  0.11565193  0.64404014  0.36855162     0.22400
C745        C  0.13152331  0.61955565  0.42058112    -0.52500
C746        C  0.11337218  0.64291294  0.40651415     0.11500
C747        C  0.12423312  0.58700098  0.37154307    -0.52000
C748        C  0.10602840  0.61023497  0.35758774     0.12100
H749        H  0.19690165  0.62188070  0.37183187     0.16600
H750        H  0.10090279  0.66297700  0.35707690     0.02400
H751        H  0.13234290  0.61555350  0.44707182     0.16900
H752        H  0.12052412  0.56198004  0.36622897     0.16700
C753        C  0.39521936  0.89587221  0.35242959     0.88500
C754        C  0.41462883  0.86903755  0.36848508    -0.51700
C755        C  0.39513975  0.84761872  0.38515443     0.11400
C756        C  0.35858887  0.85474918  0.38381593     0.22400
C757        C  0.37019996  0.87938686  0.33051204    -0.52500
C758        C  0.35094704  0.85822517  0.34704275     0.11500
C759        C  0.37527895  0.91026696  0.38074094    -0.52000
C760        C  0.35628999  0.88847871  0.39710575     0.12100
H761        H  0.44110970  0.86817037  0.36845753     0.16600
H762        H  0.34271334  0.83733038  0.39716579     0.02400
H763        H  0.36730478  0.88461149  0.30439485     0.16900
H764        H  0.37557460  0.93534729  0.38682554     0.16700
C765        C  0.08044342  0.60253599  0.33440984    -0.11300
C766        C  0.06164649  0.59042690  0.31518244    -0.12800
C767        C  0.09421349  0.58284515  0.15958721    -0.11300
C768        C  0.08163536  0.56715860  0.18118027    -0.12800
C769        C  0.42558384  0.93879088  0.31470660    -0.11300
C770        C  0.41416173  0.91951780  0.33364805    -0.12800
C771        C  0.08354524  0.93228582  0.16208370    -0.11300
C772        C  0.06842290  0.95203078  0.17727574    -0.12800
C773        C  0.41275239  0.92001025  0.16402901    -0.11300
C774        C  0.43120645  0.93426246  0.18197229    -0.12800
C775        C  0.40377887  0.58256363  0.17027936    -0.11300
C776        C  0.41515732  0.56492896  0.19065610    -0.12800
C777        C  0.05746520  0.92362698  0.30470188    -0.11300
C778        C  0.07489545  0.90645924  0.32070253    -0.12800
C779        C  0.33504484  0.58411878  0.08419143    -0.11300
C780        C  0.31583113  0.56563378  0.07205185    -0.12800
C781        C  0.18831156  0.57624229  0.05490917    -0.11300
C782        C  0.16832699  0.59001230  0.07093807    -0.12800
C783        C  0.18465284  0.94738674  0.07837574    -0.11300
C784        C  0.16574276  0.92977682  0.09252115    -0.12800
C785        C  0.31465441  0.90958731  0.44080750    -0.11300
C786        C  0.33401975  0.89724504  0.42277605    -0.12800
C787        C  0.18754676  0.55453069  0.42205637    -0.11300
C788        C  0.17003620  0.57408326  0.40974225    -0.12800
C789        C  0.33399441  0.91627358  0.07851456    -0.11300
C790        C  0.31710471  0.93061318  0.05942811    -0.12800
C791        C  0.17030808  0.91644461  0.39398432    -0.11300
C792        C  0.18908347  0.93249558  0.40985153    -0.12800
C793        C  0.42182363  0.58931097  0.34114330    -0.11300
C794        C  0.43828778  0.57374140  0.32228169    -0.12800
C795        C  0.33905002  0.59150639  0.42303597    -0.11300
C796        C  0.31917637  0.57477587  0.43710814    -0.12800
C797        C  0.09254660  0.67785713  0.08587052    -0.11300
C798        C  0.08067381  0.69791085  0.06877112    -0.12800
C799        C  0.07994852  0.85239607  0.08248366    -0.11300
C800        C  0.06261421  0.83708335  0.06395241    -0.12800
C801        C  0.42176007  0.85429150  0.07804359    -0.11300
C802        C  0.44105167  0.84315265  0.05874954    -0.12800
C803        C  0.09879577  0.83353719  0.41484099    -0.11300
C804        C  0.08742904  0.81567617  0.43543199    -0.12800
C805        C  0.40799665  0.82465377  0.40778247    -0.11300
C806        C  0.42092168  0.80929081  0.42897010    -0.12800
C807        C  0.09310895  0.66396276  0.42577841    -0.11300
C808        C  0.07555965  0.68008867  0.44285364    -0.12800
C809        C  0.42860595  0.66114105  0.08028738    -0.11300
C810        C  0.44653527  0.67801745  0.06370185    -0.12800
C811        C  0.41881312  0.68090543  0.41687911    -0.11300
C812        C  0.43491713  0.69906336  0.43317513    -0.12800
C813        C  0.32464460  0.84227273  0.33098167    -0.11300
C814        C  0.30507626  0.82913779  0.31385924    -0.12800
C815        C  0.18168775  0.68867546  0.32162901    -0.11300
C816        C  0.16749906  0.67110136  0.34064043    -0.12800
C817        C  0.32072554  0.67997209  0.18117316    -0.11300
C818        C  0.33709003  0.66576563  0.16124551    -0.12800
C819        C  0.17830138  0.82561663  0.18788414    -0.11300
C820        C  0.16100574  0.84287375  0.17223131    -0.12800
C821        C  0.33431743  0.83023927  0.16153974    -0.11300
C822        C  0.31826746  0.81326364  0.17967448    -0.12800
C823        C  0.31235158  0.66480851  0.31703854    -0.11300
C824        C  0.33239952  0.65444226  0.33583213    -0.12800
C825        C  0.17951987  0.80615349  0.31449496    -0.11300
C826        C  0.16382862  0.82647961  0.32816701    -0.12800
C827        C  0.19163237  0.65793180  0.18691190    -0.11300
C828        C  0.17623090  0.64591143  0.16522510    -0.12800
O829        O  0.21774765  0.67434583  0.73537977    -0.78100
O830        O  0.27012022  0.79837432  0.70741584    -0.78100
O831        O  0.19724514  0.77475026  0.69798887    -0.78200
O832        O  0.31655738  0.71660761  0.72427634    -0.78100
O833        O  0.21352867  0.81270636  0.73111826    -0.78200
O834        O  0.27360894  0.68956383  0.71217764    -0.78100
O835        O  0.31484153  0.77884048  0.72488829    -0.78100
O836        O  0.20073509  0.70998347  0.70001203    -0.78200
C837        C  0.20431415  0.68147691  0.70834301     1.11600
C838        C  0.30021295  0.79562746  0.70442155     1.11400
C839        C  0.19772722  0.80364086  0.70599582     1.11600
C840        C  0.30277274  0.69628416  0.70656630     1.11500
O841        O  0.27296337  0.66640280  0.77500074    -0.78100
O842        O  0.22623998  0.78135755  0.79330717    -0.78200
O843        O  0.18293944  0.71100870  0.76898278    -0.78100
O844        O  0.28886307  0.78060403  0.79188411    -0.78100
O845        O  0.26947339  0.82485549  0.76931376    -0.78200
O846        O  0.22872582  0.70998591  0.79618672    -0.78100
O847        O  0.29384276  0.71209455  0.79301467    -0.78100
O848        O  0.18052816  0.77519705  0.76697361    -0.78200
Co849      Co  0.25308542  0.70181312  0.75441422     1.51500
Co850      Co  0.25030009  0.78798804  0.75076727     1.51700
Co851      Co  0.19418870  0.74270130  0.73350431     1.51600
Co852      Co  0.29638996  0.74664465  0.75644441     1.51500
O853        O  0.24493552  0.74420808  0.73776250    -1.40100
C854        C  0.29234992  0.68142518  0.79375145     1.11500
C855        C  0.19591347  0.78531783  0.79176396     1.11600
C856        C  0.19834212  0.70512338  0.79514476     1.11500
C857        C  0.28721722  0.81113616  0.79044687     1.11500
O858        O  0.46430149  0.72963005  0.55083002    -0.78100
O859        O  0.04239454  0.78690157  0.54790185    -0.78100
O860        O  0.03683338  0.71356475  0.53625104    -0.78200
O861        O  0.46964041  0.83034577  0.50962955    -0.78100
O862        O  0.08419594  0.73943557  0.53026885    -0.78200
O863        O  0.46082246  0.79368400  0.54762930    -0.78100
O864        O  0.03606568  0.82703192  0.51340816    -0.78100
O865        O  0.47727926  0.69261065  0.51624138    -0.78200
C866        C  0.46427335  0.70072619  0.54328616     1.11600
C867        C  0.04529010  0.81624192  0.54124676     1.11400
C868        C  0.06696775  0.71801246  0.54425300     1.11600
C869        C  0.45922398  0.82197484  0.53813214     1.11500
O870        O  0.43195030  0.78977467  0.98234835    -0.78100
O871        O  0.05782963  0.72670151  0.97049016    -0.78200
O872        O  0.48404962  0.72049476  0.95247553    -0.78100
O873        O  0.03678220  0.79464947  0.94866602    -0.78100
O874        O  0.07440493  0.78806061  0.98516506    -0.78200
O875        O  0.43931193  0.72628919  0.98295574    -0.78100
O876        O  0.47209517  0.79670613  0.94665092    -0.78100
O877        O  0.03052566  0.68169095  0.97851373    -0.78200
Co878      Co  0.45223325  0.76009831  0.01577526     1.51500
Co879      Co  0.04637551  0.75649195  0.01078536     1.51700
Co880      Co  0.01094886  0.71984814  0.99259950     1.51600
Co881      Co  0.00355312  0.80940479  0.98011993     1.51500
O882        O  0.99934658  0.76523901  0.99985992    -1.40100
C883        C  0.44222384  0.79685530  0.95349722     1.11500
C884        C  0.05393787  0.69665046  0.96497176     1.11600
C885        C  0.45349415  0.71711751  0.95656169     1.11500
C886        C  0.06598140  0.79774521  0.95694320     1.11500
C887        C  0.40005637  0.65635331  0.89937656     0.88500
C888        C  0.37547307  0.66950907  0.87471498    -0.51700
C889        C  0.35816366  0.64653583  0.85857005     0.11400
C890        C  0.36742063  0.61245692  0.86828458     0.22400
C891        C  0.37979325  0.63475102  0.92240743    -0.52500
C892        C  0.36245080  0.61191955  0.90613653     0.11500
C893        C  0.42173380  0.63409290  0.87935094    -0.52000
C894        C  0.40490869  0.61109957  0.86293828     0.12100
H895        H  0.37160583  0.69467700  0.87088353     0.16600
H896        H  0.35341989  0.59380822  0.85498544     0.02400
H897        H  0.37838207  0.63793417  0.94901525     0.16900
H898        H  0.44812818  0.63663908  0.87781180     0.16700
O899        O  0.20596763  0.53264667  0.97083107    -0.78100
O900        O  0.20087381  0.96275201  0.52625042    -0.78100
O901        O  0.23795148  0.95993270  0.92185673    -0.78200
O902        O  0.21853383  0.53106899  0.54233471    -0.78100
O903        O  0.20180777  0.95203794  0.96159764    -0.78200
O904        O  0.22964108  0.57550708  0.51511923    -0.78100
O905        O  0.23491380  0.97344367  0.56526799    -0.78100
O906        O  0.23601556  0.52513271  0.92590805    -0.78200
C907        C  0.21014236  0.53534640  0.94003229     1.11600
C908        C  0.20735803  0.96285799  0.55628434     1.11400
C909        C  0.21025337  0.94973156  0.93180557     1.11600
C910        C  0.21332671  0.56064243  0.53692314     1.11500
O911        O  0.28715404  0.54619166  0.52562115    -0.78100
O912        O  0.26509569  0.92316610  0.96582532    -0.78200
O913        O  0.30302966  0.52396622  0.95307647    -0.78100
O914        O  0.29883675  0.97700272  0.53512875    -0.78100
O915        O  0.26702666  0.93437960  0.53178902    -0.78200
O916        O  0.26894320  0.56166314  0.96309622    -0.78100
O917        O  0.27618401  0.52487696  0.57440033    -0.78100
O918        O  0.30103839  0.96063042  0.95275258    -0.78200
Co919      Co  0.24503176  0.53652275  0.99825408     1.51500
Co920      Co  0.23416073  0.94595024  0.99626228     1.51700
Co921      Co  0.26899247  0.49254715  0.94142420     1.51600
Co922      Co  0.26026562  0.50408435  0.53581676     1.51500
O923        O  0.25236728  0.49038977  0.98881997    -1.40100
C924        C  0.29204706  0.54486270  0.55706603     1.11500
C925        C  0.29295600  0.93188478  0.95503118     1.11600
C926        C  0.29627517  0.55282935  0.95212028     1.11500
C927        C  0.29385973  0.94780090  0.54016538     1.11500
C928        C  0.09920248  0.88967473  0.84098162     0.88500
C929        C  0.12336352  0.91271067  0.85715994    -0.51700
C930        C  0.14616936  0.89827877  0.87601356     0.11400
C931        C  0.14284250  0.86181661  0.87714414     0.22400
C932        C  0.12051923  0.86616968  0.82168803    -0.52500
C933        C  0.14319012  0.85139569  0.84079233     0.11500
C934        C  0.08453817  0.87007960  0.86966479    -0.52000
C935        C  0.10749105  0.85533306  0.88844777     0.12100
H936        H  0.12235999  0.93828888  0.85417913     0.16600
H937        H  0.16139079  0.84994635  0.89256660     0.02400
H938        H  0.11740533  0.86107431  0.79561089     0.16900
H939        H  0.05846790  0.86742529  0.87415555     0.16700
O940        O  0.46631110  0.57150504  0.77138309    -0.78100
O941        O  0.02773901  0.94137602  0.75851306    -0.78100
O942        O  0.42020198  0.98070807  0.77691779    -0.78200
O943        O  0.04459838  0.54030216  0.79944588    -0.78100
O944        O  0.46840960  0.95771338  0.78104793    -0.78200
O945        O  0.03273036  0.57982062  0.76612163    -0.78100
O946        O  0.04080711  0.97584459  0.79611911    -0.78100
O947        O  0.46062802  0.52720553  0.80034997    -0.78200
C948        C  0.45684771  0.55683255  0.79746285     1.11600
C949        C  0.04055636  0.94761625  0.78608438     1.11400
C950        C  0.43819617  0.95985060  0.78977951     1.11600
C951        C  0.04446781  0.56951770  0.79303083     1.11500
O952        O  0.03071286  0.55309835  0.70001330    -0.78100
O953        O  0.47454032  0.93232975  0.71932705    -0.78200
O954        O  0.42880574  0.53488505  0.73844591    -0.78100
O955        O  0.06523931  0.97896116  0.72764216    -0.78100
O956        O  0.02063145  0.97497461  0.69753000    -0.78200
O957        O  0.46658016  0.54708408  0.70284852    -0.78100
O958        O  0.07169424  0.54301989  0.73298562    -0.78100
O959        O  0.44794876  0.97744612  0.71543860    -0.78200
Co960      Co  0.99922500  0.56003063  0.73546070     1.51500
Co961      Co  0.99384486  0.96939573  0.73783961     1.51700
Co962      Co  0.45779076  0.50193554  0.75945773     1.51600
Co963      Co  0.05236121  0.50969216  0.76388414     1.51500
O964        O  0.00486053  0.51433763  0.74987513    -1.40100
C965        C  0.06071839  0.55287354  0.70559646     1.11500
C966        C  0.45200156  0.94834474  0.70656459     1.11600
C967        C  0.43717498  0.54756602  0.71127791     1.11500
C968        C  0.05094798  0.97090093  0.70101219     1.11500
C969        C  0.35350067  0.85377943  0.64239761     0.88500
C970        C  0.37922509  0.83977568  0.61891855    -0.51700
C971        C  0.39666772  0.86233314  0.60169475     0.11400
C972        C  0.38681574  0.89655220  0.60938587     0.22400
C973        C  0.37256387  0.87680132  0.66437664    -0.52500
C974        C  0.39021134  0.89904106  0.64722459     0.11500
C975        C  0.33239372  0.87463816  0.62050496    -0.52000
C976        C  0.34974311  0.89678813  0.60293786     0.12100
H977        H  0.38322184  0.81451109  0.61612151     0.16600
H978        H  0.40103170  0.91470971  0.59526200     0.02400
H979        H  0.37306032  0.87492569  0.69113907     0.16900
H980        H  0.30614144  0.87150429  0.61826622     0.16700
C981        C  0.11028840  0.65204204  0.60146895     0.88500
C982        C  0.13623266  0.66385731  0.62554463    -0.51700
C983        C  0.15361344  0.63996132  0.63931322     0.11400
C984        C  0.14396533  0.60678033  0.62774603     0.22400
C985        C  0.12875931  0.63218877  0.57612590    -0.52500
C986        C  0.14636017  0.60866349  0.59000139     0.11500
C987        C  0.08935337  0.62825597  0.62151048    -0.52000
C988        C  0.10737424  0.60465875  0.63542379     0.12100
H989        H  0.13982452  0.68865711  0.63195584     0.16600
H990        H  0.15853924  0.58760019  0.63905048     0.02400
H991        H  0.12891350  0.63700706  0.54973295     0.16900
H992        H  0.06328337  0.63071887  0.62567244     0.16700
C993        C  0.40404945  0.64333376  0.60028649     0.88500
C994        C  0.41851920  0.62079721  0.62608886    -0.51700
C995        C  0.39539871  0.60494450  0.64459582     0.11400
C996        C  0.36012741  0.61308152  0.63566908     0.22400
C997        C  0.38097445  0.62237594  0.57977968    -0.52500
C998        C  0.35810988  0.60640725  0.59836305     0.11500
C999        C  0.38159022  0.66521931  0.62013586    -0.52000
C1000       C  0.35871162  0.64942892  0.63871423     0.12100
H1001       H  0.44456289  0.61768437  0.62941941     0.16600
H1002       H  0.34144968  0.60021634  0.65078779     0.02400
H1003       H  0.38287686  0.61999232  0.55311901     0.16900
H1004       H  0.38408728  0.69089059  0.62013593     0.16700
C1005       C  0.14204934  0.86378927  0.65095734     0.88500
C1006       C  0.16426174  0.88494339  0.62984457    -0.51700
C1007       C  0.14795221  0.90510926  0.60993253     0.11400
C1008       C  0.11033972  0.90156353  0.61204193     0.22400
C1009       C  0.11961331  0.88673272  0.66948629    -0.52500
C1010       C  0.10313873  0.90672453  0.64908095     0.11500
C1011       C  0.11993588  0.84621955  0.62664375    -0.52000
C1012       C  0.10300723  0.86570588  0.60623258     0.12100
H1013       H  0.19072125  0.88513107  0.63173276     0.16600
H1014       H  0.09701125  0.91785700  0.59549253     0.02400
H1015       H  0.11783436  0.88785964  0.69625197     0.16900
H1016       H  0.11758779  0.82054837  0.62588899     0.16700
C1017       C  0.15023995  0.59948103  0.89524228     0.88500
C1018       C  0.17058246  0.62340183  0.87502676    -0.51700
C1019       C  0.15255674  0.64681416  0.86118203     0.11400
C1020       C  0.11563234  0.64405440  0.86854527     0.22400
C1021       C  0.13150614  0.61957832  0.92057851    -0.52500
C1022       C  0.11335393  0.64293302  0.90650842     0.11500
C1023       C  0.12421362  0.58701568  0.87154678    -0.52000
C1024       C  0.10600883  0.61024728  0.85758734     0.12100
H1025       H  0.19688203  0.62189462  0.87182604     0.16600
H1026       H  0.10088299  0.66298938  0.85706751     0.02400
H1027       H  0.13232647  0.61557994  0.94706986     0.16900
H1028       H  0.12050562  0.56199391  0.86623597     0.16700
C1029       C  0.39520827  0.89588399  0.85242159     0.88500
C1030       C  0.41461612  0.86905701  0.86849229    -0.51700
C1031       C  0.39512488  0.84764212  0.88516386     0.11400
C1032       C  0.35857408  0.85476872  0.88381388     0.22400
C1033       C  0.37019596  0.87938865  0.83050325    -0.52500
C1034       C  0.35094107  0.85823080  0.84703763     0.11500
C1035       C  0.37525924  0.91028704  0.88072194    -0.52000
C1036       C  0.35626889  0.88850248  0.89709026     0.12100
H1037       H  0.44109697  0.86819073  0.86847000     0.16600
H1038       H  0.34269730  0.83735300  0.89716664     0.02400
H1039       H  0.36730703  0.88460363  0.80438332     0.16900
H1040       H  0.37555302  0.93536911  0.88679900     0.16700
C1041       C  0.08042895  0.60254400  0.83440533    -0.11300
C1042       C  0.06163991  0.59042974  0.81517360    -0.12800
C1043       C  0.09421974  0.58283754  0.65957542    -0.11300
C1044       C  0.08164077  0.56715095  0.68116752    -0.12800
C1045       C  0.42558617  0.93879159  0.81469688    -0.11300
C1046       C  0.41415572  0.91952365  0.83363831    -0.12800
C1047       C  0.08355700  0.93227403  0.66208166    -0.11300
C1048       C  0.06843365  0.95201981  0.67727145    -0.12800
C1049       C  0.41276795  0.91999871  0.66402213    -0.11300
C1050       C  0.43122139  0.93425244  0.68196456    -0.12800
C1051       C  0.40378905  0.58255595  0.67027066    -0.11300
C1052       C  0.41516679  0.56491989  0.69064595    -0.12800
C1053       C  0.05747966  0.92362410  0.80469540    -0.11300
C1054       C  0.07490878  0.90645446  0.82069514    -0.12800
C1055       C  0.33506278  0.58410812  0.58418189    -0.11300
C1056       C  0.31585037  0.56561960  0.57204505    -0.12800
C1057       C  0.18832219  0.57621411  0.55490527    -0.11300
C1058       C  0.16833612  0.58998458  0.57093160    -0.12800
C1059       C  0.18467005  0.94737757  0.57837762    -0.11300
C1060       C  0.16575861  0.92977001  0.59252361    -0.12800
C1061       C  0.31463884  0.90961316  0.94079698    -0.11300
C1062       C  0.33400022  0.89727263  0.92276009    -0.12800
C1063       C  0.18753088  0.55455305  0.92205901    -0.11300
C1064       C  0.17001886  0.57410435  0.90974505    -0.12800
C1065       C  0.33400517  0.91624293  0.57851264    -0.11300
C1066       C  0.31711653  0.93058317  0.55942575    -0.12800
C1067       C  0.17031647  0.91643227  0.89398130    -0.11300
C1068       C  0.18908338  0.93249178  0.90985015    -0.12800
C1069       C  0.42183593  0.58930478  0.84113713    -0.11300
C1070       C  0.43829915  0.57373681  0.82227260    -0.12800
C1071       C  0.33904498  0.59150628  0.92302791    -0.11300
C1072       C  0.31916442  0.57478642  0.93710363    -0.12800
C1073       C  0.09257434  0.67784633  0.58585516    -0.11300
C1074       C  0.08070275  0.69790252  0.56875862    -0.12800
C1075       C  0.07996876  0.85238999  0.58247583    -0.11300
C1076       C  0.06263533  0.83707755  0.56394369    -0.12800
C1077       C  0.42177887  0.85427732  0.57804090    -0.11300
C1078       C  0.44107032  0.84314402  0.55874312    -0.12800
C1079       C  0.09879189  0.83353519  0.91484123    -0.11300
C1080       C  0.08741731  0.81568006  0.93543454    -0.12800
C1081       C  0.40797832  0.82467880  0.90779499    -0.11300
C1082       C  0.42090218  0.80931307  0.92898079    -0.12800
C1083       C  0.09308884  0.66398240  0.92577130    -0.11300
C1084       C  0.07553885  0.68010441  0.94284993    -0.12800
C1085       C  0.42862144  0.66113726  0.58028556    -0.11300
C1086       C  0.44655385  0.67801348  0.56370298    -0.12800
C1087       C  0.41880921  0.68090084  0.91687616    -0.11300
C1088       C  0.43490457  0.69906460  0.93317426    -0.12800
C1089       C  0.32464385  0.84226918  0.83097796    -0.11300
C1090       C  0.30507749  0.82912645  0.81385981    -0.12800
C1091       C  0.18167545  0.68867558  0.82161369    -0.11300
C1092       C  0.16748041  0.67110876  0.84062723    -0.12800
C1093       C  0.32074289  0.67995963  0.68117758    -0.11300
C1094       C  0.33710514  0.66575615  0.66124524    -0.12800
C1095       C  0.17831815  0.82560370  0.68787469    -0.11300
C1096       C  0.16102069  0.84286250  0.67222625    -0.12800
C1097       C  0.33434540  0.83021799  0.66154840    -0.11300
C1098       C  0.31829394  0.81324475  0.67968442    -0.12800
C1099       C  0.31235212  0.66479218  0.81703718    -0.11300
C1100       C  0.33240335  0.65442633  0.83582703    -0.12800
C1101       C  0.17951667  0.80613458  0.81448336    -0.11300
C1102       C  0.16382761  0.82646000  0.82816013    -0.12800
C1103       C  0.19164874  0.65791619  0.68689892    -0.11300
C1104       C  0.17624905  0.64589251  0.66521278    -0.12800
O1105       O  0.71773831  0.17435997  0.23538966    -0.78100
O1106       O  0.77009987  0.29838798  0.20741268    -0.78100
O1107       O  0.69722352  0.27476317  0.19800436    -0.78200
O1108       O  0.81654417  0.21662619  0.22426528    -0.78100
O1109       O  0.71351480  0.31272174  0.23112713    -0.78200
O1110       O  0.77359534  0.18957770  0.21217845    -0.78100
O1111       O  0.81482563  0.27885890  0.22487866    -0.78100
O1112       O  0.70071656  0.20999825  0.20002732    -0.78200
C1113       C  0.70429926  0.18149178  0.20835585     1.11600
C1114       C  0.80019225  0.29564377  0.20441358     1.11400
C1115       C  0.69770888  0.30365462  0.20600800     1.11600
C1116       C  0.80275761  0.19629966  0.20656086     1.11500
O1117       O  0.77296171  0.16641809  0.27500205    -0.78100
O1118       O  0.72623970  0.28137472  0.29331448    -0.78200
O1119       O  0.68293578  0.21102098  0.26900231    -0.78100
O1120       O  0.78886104  0.28061820  0.29187991    -0.78100
O1121       O  0.76947075  0.32487055  0.26931225    -0.78200
O1122       O  0.72872818  0.20999996  0.29619570    -0.78100
O1123       O  0.79384786  0.21211001  0.29300856    -0.78100
O1124       O  0.68052253  0.27521041  0.26699137    -0.78200
Co1125     Co  0.75307941  0.20182775  0.25441833     1.51500
Co1126     Co  0.75029054  0.28800351  0.25076925     1.51700
Co1127     Co  0.69417631  0.24271465  0.23352103     1.51600
Co1128     Co  0.79638250  0.24666110  0.25643794     1.51500
O1129       O  0.74492418  0.24422246  0.23776762    -1.40100
C1130       C  0.79235088  0.18144079  0.29374986     1.11500
C1131       C  0.69591285  0.28533405  0.29177690     1.11600
C1132       C  0.69834502  0.20513301  0.29515982     1.11500
C1133       C  0.78721559  0.31115022  0.29044414     1.11500
O1134       O  0.96427833  0.22963549  0.05082877    -0.78100
O1135       O  0.54236998  0.28690887  0.04790841    -0.78100
O1136       O  0.53680777  0.21357130  0.03625532    -0.78200
O1137       O  0.96962238  0.33035463  0.00963729    -0.78100
O1138       O  0.58417074  0.23944172  0.03027823    -0.78200
O1139       O  0.96079861  0.29369044  0.04763375    -0.78100
O1140       O  0.53604714  0.32703997  0.01341498    -0.78100
O1141       O  0.97725645  0.19261772  0.01623850    -0.78200
C1142       C  0.96425071  0.20073197  0.04328367     1.11600
C1143       C  0.54526850  0.31624911  0.04125418     1.11400
C1144       C  0.56694093  0.21801918  0.04426149     1.11600
C1145       C  0.95920374  0.32198242  0.03813858     1.11500
O1146       O  0.93197075  0.28976309  0.48234312    -0.78100
O1147       O  0.55784982  0.22669040  0.47048559    -0.78200
O1148       O  0.98406697  0.22048488  0.45247531    -0.78100
O1149       O  0.53680000  0.29463449  0.44866206    -0.78100
O1150       O  0.57442455  0.28805210  0.48515960    -0.78200
O1151       O  0.93933186  0.22627953  0.48295915    -0.78100
O1152       O  0.97211524  0.29669168  0.44664500    -0.78100
O1153       O  0.53054424  0.18168137  0.47851317    -0.78200
Co1154     Co  0.95225474  0.26009041  0.51577411     1.51500
Co1155     Co  0.54639760  0.25648332  0.51077993     1.51700
Co1156     Co  0.51096944  0.21983961  0.49259751     1.51600
Co1157     Co  0.50357185  0.30939396  0.48011372     1.51500
O1158       O  0.49936746  0.26523009  0.49985746    -1.40100
C1159       C  0.94224380  0.29683903  0.45349037     1.11500
C1160       C  0.55395761  0.19663864  0.46497080     1.11600
C1161       C  0.95351144  0.21710972  0.45656336     1.11500
C1162       C  0.56599859  0.29773505  0.45693846     1.11500
C1163       C  0.90005355  0.15636171  0.39938144     0.88500
C1164       C  0.87546868  0.16952052  0.37472314    -0.51700
C1165       C  0.85815623  0.14654914  0.35857842     0.11400
C1166       C  0.86741180  0.11246894  0.36829071     0.22400
C1167       C  0.87979147  0.13475925  0.42241360    -0.52500
C1168       C  0.86244655  0.11192899  0.40614308     0.11500
C1169       C  0.92172714  0.13410095  0.37935265    -0.52000
C1170       C  0.90489894  0.11110935  0.36294135     0.12100
H1171       H  0.87160436  0.19468894  0.37089198     0.16600
H1172       H  0.85340913  0.09382141  0.35499189     0.02400
H1173       H  0.87838601  0.13793889  0.44902215     0.16900
H1174       H  0.94812174  0.13664456  0.37781184     0.16700
O1175       O  0.70598259  0.03262159  0.47082809    -0.78100
O1176       O  0.70085630  0.46276509  0.02624908    -0.78100
O1177       O  0.73796516  0.45991377  0.42185734    -0.78200
O1178       O  0.71851178  0.03109101  0.04233329    -0.78100
O1179       O  0.70182110  0.45202894  0.46159964    -0.78200
O1180       O  0.72963021  0.07552970  0.01512350    -0.78100
O1181       O  0.73489262  0.47346285  0.06526800    -0.78100
O1182       O  0.73603246  0.02511244  0.42590570    -0.78200
C1183       C  0.71015809  0.03532363  0.44002949     1.11600
C1184       C  0.70733904  0.46287224  0.05628331     1.11400
C1185       C  0.71026353  0.44972281  0.43180692     1.11600
C1186       C  0.71331167  0.06066646  0.03692537     1.11500
O1187       O  0.78713945  0.04620855  0.02562423    -0.78100
O1188       O  0.76510717  0.42314701  0.46582316    -0.78200
O1189       O  0.80304689  0.02394876  0.45306964    -0.78100
O1190       O  0.79881754  0.47702864  0.03513011    -0.78100
O1191       O  0.76701336  0.43440180  0.03179186    -0.78200
O1192       O  0.76895670  0.06164234  0.46309498    -0.78100
O1193       O  0.77615859  0.02489774  0.07440267    -0.78100
O1194       O  0.80105394  0.46060823  0.45274994    -0.78200
Co1195     Co  0.74504632  0.03650136  0.49825202     1.51500
Co1196     Co  0.73417482  0.44593365  0.49626143     1.51700
Co1197     Co  0.76900900  0.99252714  0.44142180     1.51600
Co1198     Co  0.76024323  0.00410597  0.03581756     1.51500
O1199       O  0.75238697  0.99037023  0.48881935    -1.40100
C1200       C  0.79202716  0.04488047  0.05706999     1.11500
C1201       C  0.79296990  0.43186294  0.45503236     1.11600
C1202       C  0.79628985  0.05281204  0.45211880     1.11500
C1203       C  0.79384468  0.44782667  0.04016775     1.11500
C1204       C  0.59919220  0.38968331  0.34098874     0.88500
C1205       C  0.62334910  0.41272246  0.35716928    -0.51700
C1206       C  0.64615793  0.39829240  0.37602096     0.11400
C1207       C  0.64283745  0.36183062  0.37714892     0.22400
C1208       C  0.62051380  0.36618326  0.32169354    -0.52500
C1209       C  0.64318732  0.35141247  0.34079736     0.11500
C1210       C  0.58453144  0.37008343  0.36967016    -0.52000
C1211       C  0.60748785  0.35534020  0.38845151     0.12100
H1212       H  0.62234221  0.43830052  0.35418944     0.16600
H1213       H  0.66138799  0.34996239  0.39257043     0.02400
H1214       H  0.61740083  0.36108827  0.29561615     0.16900
H1215       H  0.55846175  0.36742313  0.37416042     0.16700
O1216       O  0.96630354  0.07151147  0.27139491    -0.78100
O1217       O  0.52772843  0.44138148  0.25851753    -0.78100
O1218       O  0.92019344  0.48071213  0.27693228    -0.78200
O1219       O  0.54458884  0.04030352  0.29945751    -0.78100
O1220       O  0.96840156  0.45771690  0.28105304    -0.78200
O1221       O  0.53272462  0.07982472  0.26613579    -0.78100
O1222       O  0.54079358  0.47584764  0.29612672    -0.78100
O1223       O  0.96061937  0.02721143  0.30036083    -0.78200
C1224       C  0.95683874  0.05683833  0.29747356     1.11600
C1225       C  0.54054340  0.44761992  0.28609053     1.11400
C1226       C  0.93818947  0.45985307  0.28978928     1.11600
C1227       C  0.54446393  0.06951912  0.29304308     1.11500
O1228       O  0.53070636  0.05310794  0.20002577    -0.78100
O1229       O  0.97453036  0.43233866  0.21932951    -0.78200
O1230       O  0.92879617  0.03489281  0.23845609    -0.78100
O1231       O  0.56522847  0.47896668  0.22764981    -0.78100
O1232       O  0.52062131  0.47498555  0.19753604    -0.78200
O1233       O  0.96657192  0.04709574  0.20286035    -0.78100
O1234       O  0.57168681  0.04302420  0.23299755    -0.78100
O1235       O  0.94793524  0.47745367  0.21544959    -0.78200
Co1236     Co  0.49921775  0.06003839  0.23547331     1.51500
Co1237     Co  0.49383497  0.46940321  0.23784508     1.51700
Co1238     Co  0.95778035  0.00194192  0.25946877     1.51600
Co1239     Co  0.55235071  0.00969563  0.26389391     1.51500
O1240       O  0.50485039  0.01434373  0.24988440    -1.40100
C1241       C  0.56071195  0.05288096  0.20560908     1.11500
C1242       C  0.95198891  0.44835345  0.20657175     1.11600
C1243       C  0.93716623  0.04757595  0.21128893     1.11500
C1244       C  0.55093753  0.47091021  0.20101835     1.11500
C1245       C  0.85347684  0.35380062  0.14239344     0.88500
C1246       C  0.87919931  0.33979526  0.11891385    -0.51700
C1247       C  0.89664716  0.36235135  0.10169398     0.11400
C1248       C  0.88680098  0.39657163  0.10938853     0.22400
C1249       C  0.87254324  0.37681670  0.16437631    -0.52500
C1250       C  0.89019518  0.39905580  0.14722788     0.11500
C1251       C  0.83237453  0.37466560  0.12050288    -0.52000
C1252       C  0.84972848  0.39681475  0.10293920     0.12100
H1253       H  0.88319185  0.31453020  0.11611436     0.16600
H1254       H  0.90102086  0.41472826  0.09526745     0.02400
H1255       H  0.87303771  0.37493810  0.19113863     0.16900
H1256       H  0.80612188  0.37153618  0.11826255     0.16700
C1257       C  0.61026569  0.15205540  0.10148335     0.88500
C1258       C  0.63620777  0.16387393  0.12556021    -0.51700
C1259       C  0.65359433  0.13998010  0.13932584     0.11400
C1260       C  0.64395345  0.10679841  0.12775534     0.22400
C1261       C  0.62874109  0.13220850  0.07613824    -0.52500
C1262       C  0.64634773  0.10868594  0.09001081     0.11500
C1263       C  0.58933639  0.12826291  0.12152301    -0.52000
C1264       C  0.60736281  0.10466843  0.13543424     0.12100
H1265       H  0.63979437  0.18867374  0.13197380     0.16600
H1266       H  0.65853199  0.08762035  0.13905742     0.02400
H1267       H  0.62889359  0.13702903  0.04974565     0.16900
H1268       H  0.56326605  0.13072047  0.12568644     0.16700
C1269       C  0.90403554  0.14333902  0.10029114     0.88500
C1270       C  0.91850664  0.12080271  0.12609315    -0.51700
C1271       C  0.89538715  0.10495110  0.14460265     0.11400
C1272       C  0.86011521  0.11308889  0.13567772     0.22400
C1273       C  0.88095851  0.12238177  0.07978673    -0.52500
C1274       C  0.85809492  0.10641437  0.09837203     0.11500
C1275       C  0.88157831  0.16522569  0.12014108    -0.52000
C1276       C  0.85870017  0.14943641  0.13872079     0.12100
H1277       H  0.94455053  0.11768951  0.12942183     0.16600
H1278       H  0.84143778  0.10022483  0.15079779     0.02400
H1279       H  0.88285801  0.11999848  0.05312573     0.16900
H1280       H  0.88407456  0.19089712  0.12013842     0.16700
C1281       C  0.64203449  0.36379932  0.15095992     0.88500
C1282       C  0.66424637  0.38495086  0.12984341    -0.51700
C1283       C  0.64793638  0.40511603  0.10993069     0.11400
C1284       C  0.61032362  0.40157159  0.11204318     0.22400
C1285       C  0.61960070  0.38674513  0.16948809    -0.52500
C1286       C  0.60312547  0.40673583  0.14908237     0.11500
C1287       C  0.61991851  0.34622826  0.12664955    -0.52000
C1288       C  0.60298912  0.36571345  0.10623769     0.12100
H1289       H  0.69070593  0.38513814  0.13173041     0.16600
H1290       H  0.59699447  0.41786420  0.09549344     0.02400
H1291       H  0.61782340  0.38787414  0.19625377     0.16900
H1292       H  0.61756927  0.32055709  0.12589749     0.16700
C1293       C  0.65025850  0.09946244  0.39524175     0.88500
C1294       C  0.67060183  0.12338698  0.37503110    -0.51700
C1295       C  0.65257625  0.14680154  0.36118970     0.11400
C1296       C  0.61565180  0.14403999  0.36855127     0.22400
C1297       C  0.63152331  0.11955566  0.42058081    -0.52500
C1298       C  0.61337209  0.14291287  0.40651381     0.11500
C1299       C  0.62423313  0.08700083  0.37154289    -0.52000
C1300       C  0.60602836  0.11023477  0.35758751     0.12100
H1301       H  0.69690158  0.12188075  0.37183146     0.16600
H1302       H  0.60090258  0.16297677  0.35707653     0.02400
H1303       H  0.63234290  0.11555354  0.44707154     0.16900
H1304       H  0.62052416  0.06197988  0.36622889     0.16700
C1305       C  0.89521994  0.39587141  0.35242950     0.88500
C1306       C  0.91462910  0.36903650  0.36848492    -0.51700
C1307       C  0.89513977  0.34761791  0.38515435     0.11400
C1308       C  0.85858899  0.35474888  0.38381599     0.22400
C1309       C  0.87020024  0.37938639  0.33051204    -0.52500
C1310       C  0.85094708  0.35822495  0.34704285     0.11500
C1311       C  0.87527983  0.41026638  0.38074090    -0.52000
C1312       C  0.85629062  0.38847845  0.39710581     0.12100
H1313       H  0.94110995  0.36816898  0.36845730     0.16600
H1314       H  0.84271327  0.33733029  0.39716592     0.02400
H1315       H  0.86730507  0.38461101  0.30439486     0.16900
H1316       H  0.87557580  0.43534680  0.38682546     0.16700
C1317       C  0.58044336  0.10253573  0.33440969    -0.11300
C1318       C  0.56164637  0.09042664  0.31518235    -0.12800
C1319       C  0.59421364  0.08284525  0.15958765    -0.11300
C1320       C  0.58163571  0.06715848  0.18118064    -0.12800
C1321       C  0.92558451  0.43879009  0.31470657    -0.11300
C1322       C  0.91416249  0.41951685  0.33364791    -0.12800
C1323       C  0.58354496  0.43228611  0.16208333    -0.11300
C1324       C  0.56842274  0.45203112  0.17727542    -0.12800
C1325       C  0.91275262  0.42001013  0.16402916    -0.11300
C1326       C  0.93120671  0.43426231  0.18197244    -0.12800
C1327       C  0.90377919  0.08256374  0.17027888    -0.11300
C1328       C  0.91515770  0.06492904  0.19065555    -0.12800
C1329       C  0.55746552  0.42362729  0.30470191    -0.11300
C1330       C  0.57489565  0.40645956  0.32070270    -0.12800
C1331       C  0.83504442  0.08411901  0.08419167    -0.11300
C1332       C  0.81583067  0.06563401  0.07205218    -0.12800
C1333       C  0.68831084  0.07624209  0.05490929    -0.11300
C1334       C  0.66832624  0.09001225  0.07093802    -0.12800
C1335       C  0.68465269  0.44738714  0.07837569    -0.11300
C1336       C  0.66574258  0.42977726  0.09252110    -0.12800
C1337       C  0.81465522  0.40958770  0.44080743    -0.11300
C1338       C  0.83402050  0.39724517  0.42277608    -0.12800
C1339       C  0.68754690  0.05453086  0.42205626    -0.11300
C1340       C  0.67003630  0.07408335  0.40974205    -0.12800
C1341       C  0.83399411  0.41627340  0.07851493    -0.11300
C1342       C  0.81710439  0.43061285  0.05942837    -0.12800
C1343       C  0.67030834  0.41644460  0.39398446    -0.11300
C1344       C  0.68908389  0.43249550  0.40985154    -0.12800
C1345       C  0.92182354  0.08931148  0.34114264    -0.11300
C1346       C  0.93828774  0.07374192  0.32228106    -0.12800
C1347       C  0.83905040  0.09150600  0.42303580    -0.11300
C1348       C  0.81917679  0.07477544  0.43710798    -0.12800
C1349       C  0.59254564  0.17785698  0.08587053    -0.11300
C1350       C  0.58067282  0.19791072  0.06877118    -0.12800
C1351       C  0.57994851  0.35239616  0.08248352    -0.11300
C1352       C  0.56261414  0.33708342  0.06395235    -0.12800
C1353       C  0.92175999  0.35429193  0.07804341    -0.11300
C1354       C  0.94105159  0.34315322  0.05874929    -0.12800
C1355       C  0.59879562  0.33353730  0.41484108    -0.11300
C1356       C  0.58742884  0.31567617  0.43543195    -0.12800
C1357       C  0.90799644  0.32465287  0.40778241    -0.11300
C1358       C  0.92092147  0.30929000  0.42897011    -0.12800
C1359       C  0.59310880  0.16396265  0.42577807    -0.11300
C1360       C  0.57555950  0.18008852  0.44285336    -0.12800
C1361       C  0.92860529  0.16114148  0.08028696    -0.11300
C1362       C  0.94653449  0.17801795  0.06370140    -0.12800
C1363       C  0.91881286  0.18090553  0.41687901    -0.11300
C1364       C  0.93491690  0.19906330  0.43317520    -0.12800
C1365       C  0.82464447  0.34227272  0.33098182    -0.11300
C1366       C  0.80507616  0.32913791  0.31385927    -0.12800
C1367       C  0.68168741  0.18867553  0.32162861    -0.11300
C1368       C  0.66749880  0.17110132  0.34063998    -0.12800
C1369       C  0.82072540  0.17997200  0.18117342    -0.11300
C1370       C  0.83708997  0.16576561  0.16124579    -0.12800
C1371       C  0.67830138  0.32561717  0.18788414    -0.11300
C1372       C  0.66100569  0.34287424  0.17223129    -0.12800
C1373       C  0.83431783  0.33023904  0.16153989    -0.11300
C1374       C  0.81826778  0.31326339  0.17967451    -0.12800
C1375       C  0.81235102  0.16480852  0.31703864    -0.11300
C1376       C  0.83239894  0.15444228  0.33583229    -0.12800
C1377       C  0.67951991  0.30615380  0.31449495    -0.11300
C1378       C  0.66382864  0.32647982  0.32816712    -0.12800
C1379       C  0.69163216  0.15793242  0.18691142    -0.11300
C1380       C  0.67623070  0.14591209  0.16522459    -0.12800
O1381       O  0.71774731  0.17434545  0.73538015    -0.78100
O1382       O  0.77011993  0.29837396  0.70741546    -0.78100
O1383       O  0.69724478  0.27474976  0.69798877    -0.78200
O1384       O  0.81655709  0.21660726  0.72427613    -0.78100
O1385       O  0.71352844  0.31270601  0.73111792    -0.78200
O1386       O  0.77360860  0.18956347  0.71217761    -0.78100
O1387       O  0.81484128  0.27884018  0.72488788    -0.78100
O1388       O  0.70073463  0.20998296  0.70001231    -0.78200
C1389       C  0.70431370  0.18147642  0.70834342     1.11600
C1390       C  0.80021267  0.29562715  0.70442115     1.11400
C1391       C  0.69772695  0.30364040  0.70599555     1.11600
C1392       C  0.80277241  0.19628376  0.70656618     1.11500
O1393       O  0.77296332  0.16640260  0.77500078    -0.78100
O1394       O  0.72623986  0.28135748  0.79330700    -0.78200
O1395       O  0.68293924  0.21100856  0.76898309    -0.78100
O1396       O  0.78886300  0.28060396  0.79188373    -0.78100
O1397       O  0.76947322  0.32485533  0.76931326    -0.78200
O1398       O  0.72872574  0.20998571  0.79618687    -0.78100
O1399       O  0.79384270  0.21209442  0.79301451    -0.78100
O1400       O  0.68052799  0.27519696  0.76697353    -0.78200
Co1401     Co  0.75308520  0.20181284  0.75441427     1.51500
Co1402     Co  0.75029988  0.28798779  0.75076700     1.51700
Co1403     Co  0.69418840  0.24270099  0.73350441     1.51600
Co1404     Co  0.79638977  0.24664443  0.75644415     1.51500
O1405       O  0.74493524  0.24420777  0.73776245    -1.40100
C1406       C  0.79234995  0.18142505  0.79375134     1.11500
C1407       C  0.69591335  0.28531783  0.79176381     1.11600
C1408       C  0.69834201  0.20512324  0.79514503     1.11500
C1409       C  0.78721716  0.31113609  0.79044635     1.11500
O1410       O  0.96430168  0.22962987  0.55083023    -0.78100
O1411       O  0.54239465  0.28690147  0.54790172    -0.78100
O1412       O  0.53683359  0.21356450  0.53625089    -0.78200
O1413       O  0.96964028  0.33034544  0.50962941    -0.78100
O1414       O  0.58419608  0.23943546  0.53026870    -0.78200
O1415       O  0.96082247  0.29368380  0.54762933    -0.78100
O1416       O  0.53606552  0.32703177  0.51340800    -0.78100
O1417       O  0.97727934  0.19261042  0.51624160    -0.78200
C1418       C  0.96427355  0.20072600  0.54328644     1.11600
C1419       C  0.54529003  0.31624183  0.54124660     1.11400
C1420       C  0.56696795  0.21801229  0.54425284     1.11600
C1421       C  0.95922392  0.32197460  0.53813205     1.11500
O1422       O  0.93195011  0.28977550  0.98234793    -0.78100
O1423       O  0.55782913  0.22670166  0.97049019    -0.78200
O1424       O  0.98404926  0.22049536  0.95247523    -0.78100
O1425       O  0.53678210  0.29464962  0.94866600    -0.78100
O1426       O  0.57440470  0.28806062  0.98516515    -0.78200
O1427       O  0.93931143  0.22628993  0.98295520    -0.78100
O1428       O  0.97209514  0.29670674  0.94665067    -0.78100
O1429       O  0.53052491  0.18169123  0.97851362    -0.78200
Co1430     Co  0.95223276  0.26009894  0.01577484     1.51500
Co1431     Co  0.54637502  0.25649211  0.01078536     1.51700
Co1432     Co  0.51094829  0.21984853  0.99259933     1.51600
Co1433     Co  0.50355304  0.30940517  0.98011978     1.51500
O1434       O  0.49934618  0.26523942  0.99985975    -1.40100
C1435       C  0.94222380  0.29685607  0.95349685     1.11500
C1436       C  0.55393724  0.19665064  0.96497176     1.11600
C1437       C  0.95349378  0.21711812  0.95656127     1.11500
C1438       C  0.56598129  0.29774519  0.95694324     1.11500
C1439       C  0.90005642  0.15635334  0.89937644     0.88500
C1440       C  0.87547333  0.16950902  0.87471460    -0.51700
C1441       C  0.85816388  0.14653575  0.85856979     0.11400
C1442       C  0.86742062  0.11245688  0.86828468     0.22400
C1443       C  0.87979307  0.13475133  0.92240739    -0.52500
C1444       C  0.86245057  0.11191982  0.90613660     0.11500
C1445       C  0.92173385  0.13409266  0.87935114    -0.52000
C1446       C  0.90490871  0.11109929  0.86293858     0.12100
H1447       H  0.87160622  0.19467694  0.87088293     0.16600
H1448       H  0.85341985  0.09380814  0.85498562     0.02400
H1449       H  0.87838177  0.13793470  0.94901517     0.16900
H1450       H  0.94812823  0.13663874  0.87781209     0.16700
O1451       O  0.70596729  0.03264669  0.97083139    -0.78100
O1452       O  0.70087413  0.46275158  0.52625042    -0.78100
O1453       O  0.73795141  0.45993238  0.92185671    -0.78200
O1454       O  0.71853435  0.03106923  0.54233479    -0.78100
O1455       O  0.70180765  0.45203788  0.96159761    -0.78200
O1456       O  0.72964176  0.07550724  0.51511921    -0.78100
O1457       O  0.73491388  0.47344357  0.56526810    -0.78100
O1458       O  0.73601526  0.02513307  0.92590832    -0.78200
C1459       C  0.71014199  0.03534655  0.94003261     1.11600
C1460       C  0.70735825  0.46285763  0.55628436     1.11400
C1461       C  0.71025325  0.44973138  0.93180556     1.11600
C1462       C  0.71332740  0.06064269  0.53692320     1.11500
O1463       O  0.78715447  0.04619139  0.52562097    -0.78100
O1464       O  0.76509538  0.42316573  0.96582538    -0.78200
O1465       O  0.80302939  0.02396678  0.95307664    -0.78100
O1466       O  0.79883685  0.47700322  0.53512905    -0.78100
O1467       O  0.76702723  0.43437979  0.53178902    -0.78200
O1468       O  0.76894278  0.06166353  0.96309656    -0.78100
O1469       O  0.77618458  0.02487663  0.57440016    -0.78100
O1470       O  0.80103829  0.46062988  0.95275271    -0.78200
Co1471     Co  0.74503146  0.03652290  0.99825436     1.51500
Co1472     Co  0.73416057  0.44595012  0.99626230     1.51700
Co1473     Co  0.76899235  0.99254760  0.94142427     1.51600
Co1474     Co  0.76026582  0.00408422  0.53581664     1.51500
O1475       O  0.75236721  0.99039000  0.98882007    -1.40100
C1476       C  0.79204765  0.04486233  0.55706582     1.11500
C1477       C  0.79295572  0.43188428  0.95503120     1.11600
C1478       C  0.79627477  0.05282988  0.95212051     1.11500
C1479       C  0.79386010  0.44780133  0.54016556     1.11500
C1480       C  0.59920218  0.38967456  0.84098171     0.88500
C1481       C  0.62336319  0.41271050  0.85716006    -0.51700
C1482       C  0.64616910  0.39827863  0.87601361     0.11400
C1483       C  0.64284234  0.36181647  0.87714407     0.22400
C1484       C  0.62051897  0.36616962  0.82168800    -0.52500
C1485       C  0.64318994  0.35139565  0.84079223     0.11500
C1486       C  0.58453798  0.37007933  0.86966486    -0.52000
C1487       C  0.60749094  0.35533281  0.88844776     0.12100
H1488       H  0.62235959  0.43828873  0.85417933     0.16600
H1489       H  0.66139069  0.34994622  0.89256647     0.02400
H1490       H  0.61740505  0.36107433  0.79561087     0.16900
H1491       H  0.55846772  0.36742498  0.87415572     0.16700
O1492       O  0.96631089  0.07150466  0.77138341    -0.78100
O1493       O  0.52773883  0.44137606  0.75851319    -0.78100
O1494       O  0.92020189  0.48070867  0.77691748    -0.78200
O1495       O  0.54459846  0.04030213  0.79944578    -0.78100
O1496       O  0.96840941  0.45771377  0.78104784    -0.78200
O1497       O  0.53273008  0.07982059  0.76612168    -0.78100
O1498       O  0.54080691  0.47584460  0.79611926    -0.78100
O1499       O  0.96062796  0.02720509  0.80035024    -0.78200
C1500       C  0.95684761  0.05683212  0.79746317     1.11600
C1501       C  0.54055614  0.44761625  0.78608454     1.11400
C1502       C  0.93819596  0.45985119  0.78977934     1.11600
C1503       C  0.54446768  0.06951767  0.79303082     1.11500
O1504       O  0.53071242  0.05309836  0.70001329    -0.78100
O1505       O  0.97454027  0.43232988  0.71932712    -0.78200
O1506       O  0.92880553  0.03488467  0.73844626    -0.78100
O1507       O  0.56523938  0.47896108  0.72764237    -0.78100
O1508       O  0.52063163  0.47497455  0.69753003    -0.78200
O1509       O  0.96657986  0.04708371  0.70284880    -0.78100
O1510       O  0.57169397  0.04301997  0.73298538    -0.78100
O1511       O  0.94794881  0.47744630  0.71543846    -0.78200
Co1512     Co  0.49922469  0.06003044  0.73546086     1.51500
Co1513     Co  0.49384485  0.46939589  0.73783958     1.51700
Co1514     Co  0.95779072  0.00193520  0.75945794     1.51600
Co1515     Co  0.55236118  0.00969218  0.76388397     1.51500
O1516       O  0.50486041  0.01433749  0.74987524    -1.40100
C1517       C  0.56071798  0.05287353  0.70559625     1.11500
C1518       C  0.95200152  0.44834485  0.70656461     1.11600
C1519       C  0.93717471  0.04756566  0.71127825     1.11500
C1520       C  0.55094815  0.47090087  0.70101234     1.11500
C1521       C  0.85350052  0.35377935  0.64239746     0.88500
C1522       C  0.87922489  0.33977557  0.61891835    -0.51700
C1523       C  0.89666767  0.36233301  0.60169468     0.11400
C1524       C  0.88681587  0.39655210  0.60938598     0.22400
C1525       C  0.87256382  0.37680106  0.66437663    -0.52500
C1526       C  0.89021142  0.39904080  0.64722470     0.11500
C1527       C  0.83239375  0.37463832  0.62050489    -0.52000
C1528       C  0.84974326  0.39678828  0.60293793     0.12100
H1529       H  0.88322146  0.31451099  0.61612116     0.16600
H1530       H  0.90103193  0.41470961  0.59526221     0.02400
H1531       H  0.87306021  0.37492533  0.69113904     0.16900
H1532       H  0.80614139  0.37150460  0.61826610     0.16700
C1533       C  0.61028854  0.15204184  0.60146880     0.88500
C1534       C  0.63623244  0.16385701  0.62554495    -0.51700
C1535       C  0.65361306  0.13996092  0.63931359     0.11400
C1536       C  0.64396517  0.10678000  0.62774599     0.22400
C1537       C  0.62875981  0.13218879  0.57612584    -0.52500
C1538       C  0.64636054  0.10866345  0.59000138     0.11500
C1539       C  0.58935322  0.12825559  0.62150988    -0.52000
C1540       C  0.60737399  0.10465831  0.63542327     0.12100
H1541       H  0.63982420  0.18865670  0.63195636     0.16600
H1542       H  0.65853898  0.08759979  0.63905048     0.02400
H1543       H  0.62891437  0.13700730  0.54973295     0.16900
H1544       H  0.56328328  0.13071846  0.62567155     0.16700
C1545       C  0.90404974  0.14333356  0.60028687     0.88500
C1546       C  0.91851943  0.12079706  0.62608937    -0.51700
C1547       C  0.89539880  0.10494427  0.64459613     0.11400
C1548       C  0.86012753  0.11308118  0.63566913     0.22400
C1549       C  0.88097495  0.12237569  0.57977990    -0.52500
C1550       C  0.85811031  0.10640691  0.59836308     0.11500
C1551       C  0.88159027  0.16521898  0.62013608    -0.52000
C1552       C  0.85871158  0.14942856  0.63871427     0.12100
H1553       H  0.94456301  0.11768429  0.62942010     0.16600
H1554       H  0.84144973  0.10021594  0.65078769     0.02400
H1555       H  0.88287756  0.11999209  0.55311923     0.16900
H1556       H  0.88408725  0.19089038  0.62013619     0.16700
C1557       C  0.64204917  0.36378897  0.65095718     0.88500
C1558       C  0.66426161  0.38494297  0.62984439    -0.51700
C1559       C  0.64795222  0.40510898  0.60993242     0.11400
C1560       C  0.61033970  0.40156349  0.61204187     0.22400
C1561       C  0.61961336  0.38673256  0.66948622    -0.52500
C1562       C  0.60313885  0.40672449  0.64908094     0.11500
C1563       C  0.61993554  0.34621943  0.62664363    -0.52000
C1564       C  0.60300698  0.36570587  0.60623251     0.12100
H1565       H  0.69072122  0.38513047  0.63173252     0.16600
H1566       H  0.59701132  0.41785706  0.59549253     0.02400
H1567       H  0.61783449  0.38785946  0.69625190     0.16900
H1568       H  0.61758730  0.32054824  0.62588883     0.16700
C1569       C  0.65023943  0.09948107  0.89524264     0.88500
C1570       C  0.67058205  0.12340186  0.87502720    -0.51700
C1571       C  0.65255641  0.14681422  0.86118239     0.11400
C1572       C  0.61563197  0.14405447  0.86854547     0.22400
C1573       C  0.63150553  0.11957837  0.92057878    -0.52500
C1574       C  0.61335337  0.14293307  0.90650861     0.11500
C1575       C  0.62421320  0.08701575  0.87154701    -0.52000
C1576       C  0.60600849  0.11024735  0.85758748     0.12100
H1577       H  0.69688161  0.12189461  0.87182657     0.16600
H1578       H  0.60088267  0.16298946  0.85706765     0.02400
H1579       H  0.63232578  0.11558002  0.94707014     0.16900
H1580       H  0.62050519  0.06199396  0.86623621     0.16700
C1581       C  0.89520782  0.39588464  0.85242119     0.88500
C1582       C  0.91461581  0.36905779  0.86849184    -0.51700
C1583       C  0.89512478  0.34764267  0.88516326     0.11400
C1584       C  0.85857392  0.35476893  0.88381315     0.22400
C1585       C  0.87019576  0.37938917  0.83050268    -0.52500
C1586       C  0.85094102  0.35823108  0.84703689     0.11500
C1587       C  0.87525856  0.41028739  0.88072153    -0.52000
C1588       C  0.85626836  0.38850259  0.89708968     0.12100
H1589       H  0.94109679  0.36819178  0.86846966     0.16600
H1590       H  0.84269728  0.33735302  0.89716579     0.02400
H1591       H  0.86730686  0.38460424  0.80438273     0.16900
H1592       H  0.87555217  0.43536944  0.88679878     0.16700
C1593       C  0.58042866  0.10254406  0.83440541    -0.11300
C1594       C  0.56163968  0.09042976  0.81517364    -0.12800
C1595       C  0.59421928  0.08283717  0.65957488    -0.11300
C1596       C  0.58164025  0.06715074  0.68116708    -0.12800
C1597       C  0.92558578  0.43879239  0.81469675    -0.11300
C1598       C  0.91415517  0.41952448  0.83363810    -0.12800
C1599       C  0.58355725  0.43227404  0.66208174    -0.11300
C1600       C  0.56843392  0.45201979  0.67727161    -0.12800
C1601       C  0.91276795  0.41999849  0.66402231    -0.11300
C1602       C  0.93122132  0.43425241  0.68196467    -0.12800
C1603       C  0.90378896  0.08255567  0.67027099    -0.11300
C1604       C  0.91516654  0.06491957  0.69064633    -0.12800
C1605       C  0.55747935  0.42362404  0.80469560    -0.11300
C1606       C  0.57490842  0.40645433  0.82069533    -0.12800
C1607       C  0.83506341  0.08410770  0.58418174    -0.11300
C1608       C  0.81585107  0.06561916  0.57204481    -0.12800
C1609       C  0.68832299  0.07621448  0.55490536    -0.11300
C1610       C  0.66833684  0.08998483  0.57093168    -0.12800
C1611       C  0.68467027  0.44737716  0.57837760    -0.11300
C1612       C  0.66575875  0.42976967  0.59252357    -0.12800
C1613       C  0.81463837  0.40961261  0.94079679    -0.11300
C1614       C  0.83399969  0.39727232  0.92275966    -0.12800
C1615       C  0.68753039  0.05455316  0.92205942    -0.11300
C1616       C  0.67001828  0.07410439  0.90974547    -0.12800
C1617       C  0.83400550  0.41624334  0.57851284    -0.11300
C1618       C  0.81711696  0.43058373  0.55942599    -0.12800
C1619       C  0.67031622  0.41643213  0.89398133    -0.11300
C1620       C  0.68908318  0.43249162  0.90985016    -0.12800
C1621       C  0.92183594  0.08930435  0.84113755    -0.11300
C1622       C  0.93829911  0.07373634  0.82227301    -0.12800
C1623       C  0.83904454  0.09150680  0.92302805    -0.11300
C1624       C  0.81916391  0.07478703  0.93710380    -0.12800
C1625       C  0.59257461  0.17784618  0.58585497    -0.11300
C1626       C  0.58070301  0.19790237  0.56875843    -0.12800
C1627       C  0.57996853  0.35239008  0.58247567    -0.11300
C1628       C  0.56263518  0.33707757  0.56394352    -0.12800
C1629       C  0.92177875  0.35427714  0.57804073    -0.11300
C1630       C  0.94107019  0.34314381  0.55874296    -0.12800
C1631       C  0.59879190  0.33353494  0.91484124    -0.11300
C1632       C  0.58741733  0.31567984  0.93543457    -0.12800
C1633       C  0.90797840  0.32467950  0.90779445    -0.11300
C1634       C  0.92090228  0.30931387  0.92898031    -0.12800
C1635       C  0.59308822  0.16398245  0.92577143    -0.11300
C1636       C  0.57553823  0.18010450  0.94285002    -0.12800
C1637       C  0.92862180  0.16113711  0.58028606    -0.11300
C1638       C  0.94655417  0.17801331  0.56370340    -0.12800
C1639       C  0.91880920  0.18090098  0.91687591    -0.11300
C1640       C  0.93490437  0.19906497  0.93317392    -0.12800
C1641       C  0.82464396  0.34226931  0.83097710    -0.11300
C1642       C  0.80507755  0.32912649  0.81385909    -0.12800
C1643       C  0.68167535  0.18867550  0.82161403    -0.11300
C1644       C  0.66748019  0.17110875  0.84062758    -0.12800
C1645       C  0.82074254  0.17995915  0.68117748    -0.11300
C1646       C  0.83710488  0.16575570  0.66124518    -0.12800
C1647       C  0.67831790  0.32560318  0.68787435    -0.11300
C1648       C  0.66102045  0.34286205  0.67222598    -0.12800
C1649       C  0.83434511  0.33021789  0.66154812    -0.11300
C1650       C  0.81829365  0.31324455  0.67968406    -0.12800
C1651       C  0.81235231  0.16479212  0.81703697    -0.11300
C1652       C  0.83240359  0.15442623  0.83582674    -0.12800
C1653       C  0.67951660  0.30613469  0.81448315    -0.11300
C1654       C  0.66382748  0.32646005  0.82815995    -0.12800
C1655       C  0.69164819  0.15791563  0.68689949    -0.11300
C1656       C  0.67624846  0.14589197  0.66521337    -0.12800
O1657       O  0.71773866  0.67435956  0.23538997    -0.78100
O1658       O  0.77009970  0.79838787  0.20741278    -0.78100
O1659       O  0.69722353  0.77476267  0.19800449    -0.78200
O1660       O  0.81654429  0.71662639  0.22426497    -0.78100
O1661       O  0.71351466  0.81272131  0.23112727    -0.78200
O1662       O  0.77359559  0.68957753  0.21217850    -0.78100
O1663       O  0.81482562  0.77885911  0.22487867    -0.78100
O1664       O  0.70071672  0.70999771  0.20002760    -0.78200
C1665       C  0.70429949  0.68149126  0.20835620     1.11600
C1666       C  0.80019209  0.79564391  0.20441363     1.11400
C1667       C  0.69770880  0.80365413  0.20600811     1.11600
C1668       C  0.80275777  0.69629971  0.20656070     1.11500
O1669       O  0.77296217  0.66641795  0.27500205    -0.78100
O1670       O  0.72623970  0.78137438  0.29331464    -0.78200
O1671       O  0.68293609  0.71102058  0.26900259    -0.78100
O1672       O  0.78886110  0.78061805  0.29187995    -0.78100
O1673       O  0.76947063  0.82487037  0.26931240    -0.78200
O1674       O  0.72872856  0.70999966  0.29619589    -0.78100
O1675       O  0.79384835  0.71210993  0.29300839    -0.78100
O1676       O  0.68052254  0.77520995  0.26699153    -0.78200
Co1677     Co  0.75307970  0.70182754  0.25441843     1.51500
Co1678     Co  0.75029050  0.78800327  0.25076940     1.51700
Co1679     Co  0.69417642  0.74271419  0.23352122     1.51600
Co1680     Co  0.79638264  0.74666111  0.25643785     1.51500
O1681       O  0.74492427  0.74422223  0.23776772    -1.40100
C1682       C  0.79235138  0.68144071  0.29374976     1.11500
C1683       C  0.69591283  0.78533364  0.29177705     1.11600
C1684       C  0.69834537  0.70513274  0.29516010     1.11500
C1685       C  0.78721557  0.81115007  0.29044423     1.11500
O1686       O  0.96427917  0.72963497  0.05082922    -0.78100
O1687       O  0.54237041  0.78690870  0.04790840    -0.78100
O1688       O  0.53680862  0.71357111  0.03625533    -0.78200
O1689       O  0.96962242  0.83035408  0.00963752    -0.78100
O1690       O  0.58417142  0.73944182  0.03027808    -0.78200
O1691       O  0.96079903  0.79368995  0.04763412    -0.78100
O1692       O  0.53604720  0.82703980  0.01341503    -0.78100
O1693       O  0.97725725  0.69261719  0.01623893    -0.78200
C1694       C  0.96425155  0.70073145  0.04328414     1.11600
C1695       C  0.54526867  0.81624897  0.04125422     1.11400
C1696       C  0.56694178  0.71801920  0.04426140     1.11600
C1697       C  0.95920393  0.82198189  0.03813887     1.11500
O1698       O  0.93197082  0.78976357  0.48234302    -0.78100
O1699       O  0.55784988  0.72669063  0.47048568    -0.78200
O1700       O  0.98406709  0.72048509  0.45247523    -0.78100
O1701       O  0.53680011  0.79463482  0.44866217    -0.78100
O1702       O  0.57442462  0.78805226  0.48515972    -0.78200
O1703       O  0.93933185  0.72627993  0.48295887    -0.78100
O1704       O  0.97211536  0.79669227  0.44664499    -0.78100
O1705       O  0.53054430  0.68168162  0.47851327    -0.78200
Co1706     Co  0.95225468  0.76009072  0.51577395     1.51500
Co1707     Co  0.54639757  0.75648350  0.51078000     1.51700
Co1708     Co  0.51096944  0.71983985  0.49259753     1.51600
Co1709     Co  0.50357198  0.80939429  0.48011383     1.51500
O1710       O  0.49936745  0.76523035  0.49985741    -1.40100
C1711       C  0.94224392  0.79683964  0.45349032     1.11500
C1712       C  0.55395771  0.69663885  0.46497095     1.11600
C1713       C  0.95351154  0.71710997  0.45656318     1.11500
C1714       C  0.56599870  0.79773523  0.45693857     1.11500
C1715       C  0.90005375  0.65636159  0.39938162     0.88500
C1716       C  0.87546921  0.66952038  0.37472301    -0.51700
C1717       C  0.85815671  0.64654905  0.35857832     0.11400
C1718       C  0.86741191  0.61246884  0.36829092     0.22400
C1719       C  0.87979130  0.63475945  0.42241376    -0.52500
C1720       C  0.86244636  0.61192918  0.40614327     0.11500
C1721       C  0.92172732  0.63410055  0.37935317    -0.52000
C1722       C  0.90489907  0.61110897  0.36294189     0.12100
H1723       H  0.87160509  0.69468888  0.37089164     0.16600
H1724       H  0.85340921  0.59382134  0.35499212     0.02400
H1725       H  0.87838563  0.63793929  0.44902230     0.16900
H1726       H  0.94812196  0.63664398  0.37781253     0.16700
O1727       O  0.70598240  0.53262123  0.47082812    -0.78100
O1728       O  0.70085634  0.96276487  0.02624917    -0.78100
O1729       O  0.73796478  0.95991376  0.42185737    -0.78200
O1730       O  0.71851217  0.53109108  0.04233306    -0.78100
O1731       O  0.70182062  0.95202920  0.46159964    -0.78200
O1732       O  0.72963070  0.57552964  0.01512310    -0.78100
O1733       O  0.73489262  0.97346275  0.06526809    -0.78100
O1734       O  0.73603241  0.52511243  0.42590579    -0.78200
C1735       C  0.71015795  0.53532341  0.44002955     1.11600
C1736       C  0.70733910  0.96287198  0.05628340     1.11400
C1737       C  0.71026308  0.94972294  0.43180693     1.11600
C1738       C  0.71331220  0.56066653  0.03692510     1.11500
O1739       O  0.78713978  0.54620833  0.02562396    -0.78100
O1740       O  0.76510646  0.92314687  0.46582322    -0.78200
O1741       O  0.80304678  0.52394913  0.45306977    -0.78100
O1742       O  0.79881747  0.97702901  0.03513024    -0.78100
O1743       O  0.76701359  0.93440196  0.03179173    -0.78200
O1744       O  0.76895632  0.56164249  0.46309511    -0.78100
O1745       O  0.77615892  0.52489761  0.07440244    -0.78100
O1746       O  0.80105350  0.96060788  0.45275006    -0.78200
Co1747     Co  0.74504605  0.53650133  0.49825210     1.51500
Co1748     Co  0.73417431  0.94593374  0.49626145     1.51700
Co1749     Co  0.76900916  0.49252731  0.44142184     1.51600
Co1750     Co  0.76024346  0.50410582  0.03581739     1.51500
O1751       O  0.75238713  0.49037026  0.48881941    -1.40100
C1752       C  0.79202752  0.54488027  0.05706971     1.11500
C1753       C  0.79296925  0.93186264  0.45503247     1.11600
C1754       C  0.79628953  0.55281237  0.45211892     1.11500
C1755       C  0.79384481  0.94782697  0.04016769     1.11500
C1756       C  0.59919208  0.88968304  0.34098851     0.88500
C1757       C  0.62334892  0.91272227  0.35716902    -0.51700
C1758       C  0.64615780  0.89829232  0.37602073     0.11400
C1759       C  0.64283745  0.86183054  0.37714873     0.22400
C1760       C  0.62051377  0.86618303  0.32169335    -0.52500
C1761       C  0.64318732  0.85141233  0.34079719     0.11500
C1762       C  0.58453142  0.87008315  0.36966997    -0.52000
C1763       C  0.60748787  0.85534004  0.38845134     0.12100
H1764       H  0.62234189  0.93830033  0.35418920     0.16600
H1765       H  0.66138802  0.84996239  0.39257026     0.02400
H1766       H  0.61740080  0.86108800  0.29561596     0.16900
H1767       H  0.55846171  0.86742276  0.37416024     0.16700
O1768       O  0.96630344  0.57151128  0.27139545    -0.78100
O1769       O  0.52772799  0.94138125  0.25851757    -0.78100
O1770       O  0.92019311  0.98071274  0.27693205    -0.78200
O1771       O  0.54458928  0.54030373  0.29945745    -0.78100
O1772       O  0.96840102  0.95771704  0.28105284    -0.78200
O1773       O  0.53272451  0.57982497  0.26613600    -0.78100
O1774       O  0.54079309  0.97584736  0.29612683    -0.78100
O1775       O  0.96061944  0.52721106  0.30036114    -0.78200
C1776       C  0.95683874  0.55683797  0.29747404     1.11600
C1777       C  0.54054295  0.94761964  0.28609058     1.11400
C1778       C  0.93818896  0.95985357  0.28978913     1.11600
C1779       C  0.54446412  0.56951935  0.29304315     1.11500
O1780       O  0.53070604  0.55310844  0.20002587    -0.78100
O1781       O  0.97453004  0.93233863  0.21932940    -0.78200
O1782       O  0.92879600  0.53489257  0.23845653    -0.78100
O1783       O  0.56522838  0.97896634  0.22765010    -0.78100
O1784       O  0.52062137  0.97498529  0.19753605    -0.78200
O1785       O  0.96657161  0.54709583  0.20286076    -0.78100
O1786       O  0.57168674  0.54302454  0.23299731    -0.78100
O1787       O  0.94793505  0.97745373  0.21544949    -0.78200
Co1788     Co  0.49921757  0.56003855  0.23547365     1.51500
Co1789     Co  0.49383474  0.96940312  0.23784493     1.51700
Co1790     Co  0.95778047  0.50194173  0.25946895     1.51600
Co1791     Co  0.55235094  0.50969591  0.26389375     1.51500
O1792       O  0.50485050  0.51434387  0.24988457    -1.40100
C1793       C  0.56071169  0.55288131  0.20560893     1.11500
C1794       C  0.95198865  0.94835351  0.20657163     1.11600
C1795       C  0.93716594  0.54757589  0.21128941     1.11500
C1796       C  0.55093758  0.97090990  0.20101855     1.11500
C1797       C  0.85347657  0.85380074  0.14239326     0.88500
C1798       C  0.87919912  0.83979520  0.11891386    -0.51700
C1799       C  0.89664714  0.86235116  0.10169398     0.11400
C1800       C  0.88680104  0.89657152  0.10938832     0.22400
C1801       C  0.87254293  0.87681688  0.16437611    -0.52500
C1802       C  0.89019504  0.89905585  0.14722768     0.11500
C1803       C  0.83237444  0.87466571  0.12050248    -0.52000
C1804       C  0.84972858  0.89681475  0.10293881     0.12100
H1805       H  0.88319159  0.81453014  0.11611452     0.16600
H1806       H  0.90102105  0.91472806  0.09526723     0.02400
H1807       H  0.87303721  0.87493842  0.19113845     0.16900
H1808       H  0.80612180  0.87153642  0.11826209     0.16700
C1809       C  0.61026644  0.65205543  0.10148335     0.88500
C1810       C  0.63620831  0.66387366  0.12556059    -0.51700
C1811       C  0.65359460  0.63997965  0.13932623     0.11400
C1812       C  0.64395370  0.60679810  0.12775534     0.22400
C1813       C  0.62874203  0.63220866  0.07613824    -0.52500
C1814       C  0.64634840  0.60868592  0.09001084     0.11500
C1815       C  0.58933684  0.62826287  0.12152259    -0.52000
C1816       C  0.60736298  0.60466820  0.13543383     0.12100
H1817       H  0.63979502  0.68867343  0.13197436     0.16600
H1818       H  0.65853203  0.58761988  0.13905743     0.02400
H1819       H  0.62889481  0.63702937  0.04974578     0.16900
H1820       H  0.56326648  0.63072057  0.12568584     0.16700
C1821       C  0.90403594  0.64333869  0.10029137     0.88500
C1822       C  0.91850675  0.62080242  0.12609359    -0.51700
C1823       C  0.89538707  0.60495094  0.14460295     0.11400
C1824       C  0.86011526  0.61308879  0.13567765     0.22400
C1825       C  0.88095903  0.62238143  0.07978676    -0.52500
C1826       C  0.85809524  0.60641415  0.09837195     0.11500
C1827       C  0.88157860  0.66522552  0.12014106    -0.52000
C1828       C  0.85870026  0.64943632  0.13872061     0.12100
H1829       H  0.94455060  0.61768915  0.12942251     0.16600
H1830       H  0.84143765  0.60022480  0.15079762     0.02400
H1831       H  0.88285872  0.61999810  0.05312589     0.16900
H1832       H  0.88407492  0.69089684  0.12013836     0.16700
C1833       C  0.64203451  0.86379892  0.15096005     0.88500
C1834       C  0.66424637  0.88495037  0.12984348    -0.51700
C1835       C  0.64793649  0.90511565  0.10993084     0.11400
C1836       C  0.61032373  0.90157137  0.11204345     0.22400
C1837       C  0.61960091  0.88674482  0.16948832    -0.52500
C1838       C  0.60312572  0.90673561  0.14908266     0.11500
C1839       C  0.61991838  0.84622799  0.12664973    -0.52000
C1840       C  0.60298905  0.86571327  0.10623792     0.12100
H1841       H  0.69070605  0.88513753  0.13173042     0.16600
H1842       H  0.59699463  0.91786406  0.09549378     0.02400
H1843       H  0.61782365  0.88787379  0.19625399     0.16900
H1844       H  0.61756906  0.82055683  0.12589762     0.16700
C1845       C  0.65025850  0.59946245  0.39524202     0.88500
C1846       C  0.67060193  0.62338698  0.37503148    -0.51700
C1847       C  0.65257643  0.64680162  0.36119012     0.11400
C1848       C  0.61565194  0.64404016  0.36855161     0.22400
C1849       C  0.63152333  0.61955566  0.42058112    -0.52500
C1850       C  0.61337219  0.64291295  0.40651414     0.11500
C1851       C  0.62423314  0.58700098  0.37154307    -0.52000
C1852       C  0.60602842  0.61023498  0.35758774     0.12100
H1853       H  0.69690167  0.62188070  0.37183187     0.16600
H1854       H  0.60090280  0.66297702  0.35707689     0.02400
H1855       H  0.63234291  0.61555350  0.44707182     0.16900
H1856       H  0.62052414  0.56198004  0.36622897     0.16700
C1857       C  0.89521932  0.89587220  0.35242958     0.88500
C1858       C  0.91462878  0.86903753  0.36848504    -0.51700
C1859       C  0.89513971  0.84761870  0.38515441     0.11400
C1860       C  0.85858884  0.85474919  0.38381593     0.22400
C1861       C  0.87019990  0.87938688  0.33051203    -0.52500
C1862       C  0.85094698  0.85822519  0.34704277     0.11500
C1863       C  0.87527893  0.91026696  0.38074095    -0.52000
C1864       C  0.85628998  0.88847872  0.39710577     0.12100
H1865       H  0.94110965  0.86817033  0.36845747     0.16600
H1866       H  0.84271331  0.83733040  0.39716580     0.02400
H1867       H  0.86730472  0.88461149  0.30439485     0.16900
H1868       H  0.87557458  0.93534729  0.38682554     0.16700
C1869       C  0.58044344  0.60253600  0.33440985    -0.11300
C1870       C  0.56164652  0.59042690  0.31518244    -0.12800
C1871       C  0.59421349  0.58284516  0.15958721    -0.11300
C1872       C  0.58163537  0.56715860  0.18118027    -0.12800
C1873       C  0.92558381  0.93879087  0.31470658    -0.11300
C1874       C  0.91416171  0.91951778  0.33364803    -0.12800
C1875       C  0.58354523  0.93228586  0.16208368    -0.11300
C1876       C  0.56842291  0.95203083  0.17727573    -0.12800
C1877       C  0.91275239  0.92001025  0.16402899    -0.11300
C1878       C  0.93120645  0.93426246  0.18197228    -0.12800
C1879       C  0.90377885  0.58256364  0.17027935    -0.11300
C1880       C  0.91515730  0.56492895  0.19065609    -0.12800
C1881       C  0.55746520  0.92362699  0.30470185    -0.11300
C1882       C  0.57489545  0.90645924  0.32070250    -0.12800
C1883       C  0.83504479  0.58411881  0.08419144    -0.11300
C1884       C  0.81583111  0.56563379  0.07205186    -0.12800
C1885       C  0.68831157  0.57624229  0.05490917    -0.11300
C1886       C  0.66832700  0.59001230  0.07093808    -0.12800
C1887       C  0.68465284  0.94738674  0.07837579    -0.11300
C1888       C  0.66574277  0.92977683  0.09252123    -0.12800
C1889       C  0.81465442  0.90958732  0.44080752    -0.11300
C1890       C  0.83401976  0.89724504  0.42277608    -0.12800
C1891       C  0.68754676  0.55453068  0.42205639    -0.11300
C1892       C  0.67003621  0.57408326  0.40974227    -0.12800
C1893       C  0.83399438  0.91627357  0.07851457    -0.11300
C1894       C  0.81710467  0.93061317  0.05942812    -0.12800
C1895       C  0.67030804  0.91644463  0.39398435    -0.11300
C1896       C  0.68908345  0.93249559  0.40985154    -0.12800
C1897       C  0.92182363  0.58931096  0.34114331    -0.11300
C1898       C  0.93828779  0.57374140  0.32228169    -0.12800
C1899       C  0.83904998  0.59150641  0.42303595    -0.11300
C1900       C  0.81917634  0.57477589  0.43710812    -0.12800
C1901       C  0.59254661  0.67785714  0.08587051    -0.11300
C1902       C  0.58067382  0.69791086  0.06877111    -0.12800
C1903       C  0.57994849  0.85239608  0.08248365    -0.11300
C1904       C  0.56261417  0.83708335  0.06395242    -0.12800
C1905       C  0.92176006  0.85429152  0.07804358    -0.11300
C1906       C  0.94105168  0.84315267  0.05874955    -0.12800
C1907       C  0.59879574  0.83353719  0.41484098    -0.11300
C1908       C  0.58742903  0.81567617  0.43543199    -0.12800
C1909       C  0.90799664  0.82465377  0.40778245    -0.11300
C1910       C  0.92092166  0.80929082  0.42897010    -0.12800
C1911       C  0.59310897  0.66396276  0.42577841    -0.11300
C1912       C  0.57555967  0.68008868  0.44285364    -0.12800
C1913       C  0.92860593  0.66114105  0.08028737    -0.11300
C1914       C  0.94653526  0.67801745  0.06370187    -0.12800
C1915       C  0.91881309  0.68090544  0.41687910    -0.11300
C1916       C  0.93491709  0.69906337  0.43317512    -0.12800
C1917       C  0.82464454  0.84227273  0.33098170    -0.11300
C1918       C  0.80507621  0.82913780  0.31385927    -0.12800
C1919       C  0.68168776  0.68867546  0.32162901    -0.11300
C1920       C  0.66749907  0.67110136  0.34064044    -0.12800
C1921       C  0.82072553  0.67997209  0.18117318    -0.11300
C1922       C  0.83709002  0.66576562  0.16124552    -0.12800
C1923       C  0.67830131  0.82561664  0.18788420    -0.11300
C1924       C  0.66100567  0.84287375  0.17223135    -0.12800
C1925       C  0.83431744  0.83023926  0.16153975    -0.11300
C1926       C  0.81826745  0.81326364  0.17967449    -0.12800
C1927       C  0.81235157  0.66480850  0.31703852    -0.11300
C1928       C  0.83239952  0.65444224  0.33583211    -0.12800
C1929       C  0.67951987  0.80615349  0.31449499    -0.11300
C1930       C  0.66382862  0.82647962  0.32816702    -0.12800
C1931       C  0.69163236  0.65793180  0.18691190    -0.11300
C1932       C  0.67623089  0.64591142  0.16522512    -0.12800
O1933       O  0.71774766  0.67434582  0.73537977    -0.78100
O1934       O  0.77012023  0.79837432  0.70741583    -0.78100
O1935       O  0.69724516  0.77475025  0.69798884    -0.78200
O1936       O  0.81655739  0.71660761  0.72427632    -0.78100
O1937       O  0.71352868  0.81270635  0.73111823    -0.78200
O1938       O  0.77360895  0.68956382  0.71217765    -0.78100
O1939       O  0.81484155  0.77884048  0.72488829    -0.78100
O1940       O  0.70073511  0.70998346  0.70001203    -0.78200
C1941       C  0.70431417  0.68147690  0.70834301     1.11600
C1942       C  0.80021296  0.79562746  0.70442155     1.11400
C1943       C  0.69772725  0.80364085  0.70599579     1.11600
C1944       C  0.80277275  0.69628415  0.70656629     1.11500
O1945       O  0.77296339  0.66640280  0.77500075    -0.78100
O1946       O  0.72623999  0.78135755  0.79330716    -0.78200
O1947       O  0.68293944  0.71100869  0.76898276    -0.78100
O1948       O  0.78886308  0.78060403  0.79188410    -0.78100
O1949       O  0.76947339  0.82485549  0.76931375    -0.78200
O1950       O  0.72872582  0.70998590  0.79618672    -0.78100
O1951       O  0.79384277  0.71209455  0.79301466    -0.78100
O1952       O  0.68052818  0.77519705  0.76697359    -0.78200
Co1953     Co  0.75308543  0.70181312  0.75441422     1.51500
Co1954     Co  0.75030010  0.78798804  0.75076726     1.51700
Co1955     Co  0.69418871  0.74270130  0.73350429     1.51600
Co1956     Co  0.79638997  0.74664465  0.75644440     1.51500
O1957       O  0.74493553  0.74420807  0.73776249    -1.40100
C1958       C  0.79234993  0.68142518  0.79375145     1.11500
C1959       C  0.69591348  0.78531783  0.79176395     1.11600
C1960       C  0.69834212  0.70512337  0.79514475     1.11500
C1961       C  0.78721723  0.81113616  0.79044687     1.11500
O1962       O  0.96430144  0.72963005  0.55083002    -0.78100
O1963       O  0.54239455  0.78690157  0.54790185    -0.78100
O1964       O  0.53683340  0.71356474  0.53625103    -0.78200
O1965       O  0.96964040  0.83034577  0.50962955    -0.78100
O1966       O  0.58419596  0.73943556  0.53026885    -0.78200
O1967       O  0.96082244  0.79368400  0.54762930    -0.78100
O1968       O  0.53606569  0.82703192  0.51340816    -0.78100
O1969       O  0.97727923  0.69261065  0.51624138    -0.78200
C1970       C  0.96427330  0.70072620  0.54328615     1.11600
C1971       C  0.54529011  0.81624191  0.54124676     1.11400
C1972       C  0.56696776  0.71801246  0.54425300     1.11600
C1973       C  0.95922398  0.82197484  0.53813214     1.11500
O1974       O  0.93195032  0.78977468  0.98234836    -0.78100
O1975       O  0.55782963  0.72670151  0.97049016    -0.78200
O1976       O  0.98404960  0.72049477  0.95247554    -0.78100
O1977       O  0.53678219  0.79464950  0.94866601    -0.78100
O1978       O  0.57440491  0.78806062  0.98516505    -0.78200
O1979       O  0.93931192  0.72628920  0.98295577    -0.78100
O1980       O  0.97209519  0.79670613  0.94665093    -0.78100
O1981       O  0.53052568  0.68169095  0.97851374    -0.78200
Co1982     Co  0.95223325  0.76009831  0.01577529     1.51500
Co1983     Co  0.54637550  0.75649195  0.01078535     1.51700
Co1984     Co  0.51094887  0.71984814  0.99259949     1.51600
Co1985     Co  0.50355311  0.80940480  0.98011992     1.51500
O1986       O  0.49934658  0.76523901  0.99985991    -1.40100
C1987       C  0.94222386  0.79685530  0.95349723     1.11500
C1988       C  0.55393789  0.69665046  0.96497177     1.11600
C1989       C  0.95349413  0.71711751  0.95656172     1.11500
C1990       C  0.56598139  0.79774523  0.95694319     1.11500
C1991       C  0.90005639  0.65635331  0.89937656     0.88500
C1992       C  0.87547309  0.66950907  0.87471498    -0.51700
C1993       C  0.85816368  0.64653583  0.85857005     0.11400
C1994       C  0.86742065  0.61245692  0.86828458     0.22400
C1995       C  0.87979327  0.63475102  0.92240743    -0.52500
C1996       C  0.86245083  0.61191955  0.90613652     0.11500
C1997       C  0.92173382  0.63409290  0.87935094    -0.52000
C1998       C  0.90490871  0.61109957  0.86293828     0.12100
H1999       H  0.87160585  0.69467700  0.87088353     0.16600
H2000       H  0.85341991  0.59380822  0.85498544     0.02400
H2001       H  0.87838208  0.63793417  0.94901525     0.16900
H2002       H  0.94812820  0.63663908  0.87781180     0.16700
O2003       O  0.70596764  0.53264668  0.97083107    -0.78100
O2004       O  0.70087383  0.96275201  0.52625042    -0.78100
O2005       O  0.73795144  0.95993271  0.92185677    -0.78200
O2006       O  0.71853384  0.53106898  0.54233472    -0.78100
O2007       O  0.70180772  0.95203796  0.96159766    -0.78200
O2008       O  0.72964109  0.57550708  0.51511925    -0.78100
O2009       O  0.73491380  0.97344368  0.56526800    -0.78100
O2010       O  0.73601559  0.52513275  0.92590805    -0.78200
C2011       C  0.71014239  0.53534644  0.94003229     1.11600
C2012       C  0.70735804  0.96285799  0.55628435     1.11400
C2013       C  0.71025332  0.94973158  0.93180560     1.11600
C2014       C  0.71332673  0.56064243  0.53692317     1.11500
O2015       O  0.78715404  0.54619165  0.52562114    -0.78100
O2016       O  0.76509563  0.92316609  0.96582530    -0.78200
O2017       O  0.80302968  0.52396623  0.95307648    -0.78100
O2018       O  0.79883674  0.97700273  0.53512877    -0.78100
O2019       O  0.76702667  0.93437961  0.53178903    -0.78200
O2020       O  0.76894322  0.56166315  0.96309623    -0.78100
O2021       O  0.77618401  0.52487695  0.57440033    -0.78100
O2022       O  0.80103835  0.96063041  0.95275258    -0.78200
Co2023     Co  0.74503177  0.53652275  0.99825408     1.51500
Co2024     Co  0.73416070  0.94595024  0.99626228     1.51700
Co2025     Co  0.76899248  0.49254717  0.94142419     1.51600
Co2026     Co  0.76026561  0.50408434  0.53581676     1.51500
O2027       O  0.75236729  0.49038978  0.98881996    -1.40100
C2028       C  0.79204707  0.54486269  0.55706602     1.11500
C2029       C  0.79295595  0.93188477  0.95503116     1.11600
C2030       C  0.79627520  0.55282936  0.95212029     1.11500
C2031       C  0.79385973  0.94780091  0.54016540     1.11500
C2032       C  0.59920248  0.88967472  0.84098161     0.88500
C2033       C  0.62336352  0.91271067  0.85715992    -0.51700
C2034       C  0.64616935  0.89827878  0.87601355     0.11400
C2035       C  0.64284250  0.86181661  0.87714413     0.22400
C2036       C  0.62051924  0.86616968  0.82168802    -0.52500
C2037       C  0.64319013  0.85139569  0.84079232     0.11500
C2038       C  0.58453817  0.87007960  0.86966477    -0.52000
C2039       C  0.60749105  0.85533306  0.88844776     0.12100
H2040       H  0.62235998  0.93828888  0.85417912     0.16600
H2041       H  0.66139079  0.84994636  0.89256659     0.02400
H2042       H  0.61740534  0.86107431  0.79561088     0.16900
H2043       H  0.55846791  0.86742529  0.87415555     0.16700
O2044       O  0.96631114  0.57150505  0.77138310    -0.78100
O2045       O  0.52773901  0.94137601  0.75851305    -0.78100
O2046       O  0.92020200  0.98070805  0.77691779    -0.78200
O2047       O  0.54459839  0.54030216  0.79944587    -0.78100
O2048       O  0.96840963  0.95771337  0.78104794    -0.78200
O2049       O  0.53273035  0.57982062  0.76612163    -0.78100
O2050       O  0.54080709  0.97584458  0.79611911    -0.78100
O2051       O  0.96062804  0.52720553  0.80034997    -0.78200
C2052       C  0.95684774  0.55683255  0.79746285     1.11600
C2053       C  0.54055635  0.94761624  0.78608438     1.11400
C2054       C  0.93819619  0.95985059  0.78977952     1.11600
C2055       C  0.54446780  0.56951770  0.79303083     1.11500
O2056       O  0.53071285  0.55309837  0.70001331    -0.78100
O2057       O  0.97454035  0.93232974  0.71932705    -0.78200
O2058       O  0.92880576  0.53488505  0.73844591    -0.78100
O2059       O  0.56523928  0.97896114  0.72764217    -0.78100
O2060       O  0.52063143  0.97497460  0.69752999    -0.78200
O2061       O  0.96658018  0.54708409  0.70284853    -0.78100
O2062       O  0.57169423  0.54301990  0.73298563    -0.78100
O2063       O  0.94794879  0.97744612  0.71543860    -0.78200
Co2064     Co  0.49922498  0.56003063  0.73546070     1.51500
Co2065     Co  0.49384485  0.96939573  0.73783961     1.51700
Co2066     Co  0.95779078  0.50193554  0.75945773     1.51600
Co2067     Co  0.55236121  0.50969217  0.76388413     1.51500
O2068       O  0.50486051  0.51433763  0.74987513    -1.40100
C2069       C  0.56071838  0.55287356  0.70559647     1.11500
C2070       C  0.95200159  0.94834474  0.70656459     1.11600
C2071       C  0.93717499  0.54756603  0.71127792     1.11500
C2072       C  0.55094796  0.97090092  0.70101219     1.11500
C2073       C  0.85350070  0.85377942  0.64239762     0.88500
C2074       C  0.87922512  0.83977567  0.61891855    -0.51700
C2075       C  0.89666774  0.86233313  0.60169476     0.11400
C2076       C  0.88681576  0.89655219  0.60938588     0.22400
C2077       C  0.87256390  0.87680132  0.66437665    -0.52500
C2078       C  0.89021136  0.89904106  0.64722460     0.11500
C2079       C  0.83239374  0.87463815  0.62050497    -0.52000
C2080       C  0.84974312  0.89678813  0.60293788     0.12100
H2081       H  0.88322187  0.81451109  0.61612152     0.16600
H2082       H  0.90103172  0.91470971  0.59526200     0.02400
H2083       H  0.87306035  0.87492569  0.69113907     0.16900
H2084       H  0.80614146  0.87150428  0.61826624     0.16700
C2085       C  0.61028843  0.65204204  0.60146896     0.88500
C2086       C  0.63623267  0.66385732  0.62554464    -0.51700
C2087       C  0.65361345  0.63996133  0.63931324     0.11400
C2088       C  0.64396534  0.60678034  0.62774606     0.22400
C2089       C  0.62875933  0.63218875  0.57612592    -0.52500
C2090       C  0.64636019  0.60866348  0.59000142     0.11500
C2091       C  0.58935339  0.62825597  0.62151049    -0.52000
C2092       C  0.60737425  0.60465876  0.63542382     0.12100
H2093       H  0.63982455  0.68865711  0.63195583     0.16600
H2094       H  0.65853925  0.58760020  0.63905051     0.02400
H2095       H  0.62891353  0.63700704  0.54973297     0.16900
H2096       H  0.56328338  0.63071886  0.62567242     0.16700
C2097       C  0.90404944  0.64333375  0.60028648     0.88500
C2098       C  0.91851921  0.62079721  0.62608886    -0.51700
C2099       C  0.89539873  0.60494450  0.64459583     0.11400
C2100       C  0.86012742  0.61308150  0.63566909     0.22400
C2101       C  0.88097445  0.62237591  0.57977970    -0.52500
C2102       C  0.85810988  0.60640723  0.59836306     0.11500
C2103       C  0.88159021  0.66521929  0.62013584    -0.52000
C2104       C  0.85871162  0.64942890  0.63871423     0.12100
H2105       H  0.94456290  0.61768438  0.62941942     0.16600
H2106       H  0.84144970  0.60021632  0.65078781     0.02400
H2107       H  0.88287687  0.61999228  0.55311901     0.16900
H2108       H  0.88408723  0.69089058  0.62013589     0.16700
C2109       C  0.64204935  0.86378927  0.65095733     0.88500
C2110       C  0.66426175  0.88494340  0.62984457    -0.51700
C2111       C  0.64795222  0.90510926  0.60993252     0.11400
C2112       C  0.61033973  0.90156353  0.61204192     0.22400
C2113       C  0.61961331  0.88673272  0.66948628    -0.52500
C2114       C  0.60313874  0.90672454  0.64908094     0.11500
C2115       C  0.61993590  0.84621960  0.62664373    -0.52000
C2116       C  0.60300724  0.86570588  0.60623257     0.12100
H2117       H  0.69072125  0.88513110  0.63173278     0.16600
H2118       H  0.59701126  0.91785699  0.59549252     0.02400
H2119       H  0.61783433  0.88785962  0.69625195     0.16900
H2120       H  0.61758781  0.82054833  0.62588897     0.16700
C2121       C  0.65023995  0.59948105  0.89524228     0.88500
C2122       C  0.67058246  0.62340183  0.87502673    -0.51700
C2123       C  0.65255672  0.64681416  0.86118200     0.11400
C2124       C  0.61563232  0.64405440  0.86854526     0.22400
C2125       C  0.63150615  0.61957835  0.92057851    -0.52500
C2126       C  0.61335393  0.64293304  0.90650841     0.11500
C2127       C  0.62421360  0.58701569  0.87154679    -0.52000
C2128       C  0.60600881  0.61024728  0.85758736     0.12100
H2129       H  0.69688200  0.62189462  0.87182599     0.16600
H2130       H  0.60088296  0.66298938  0.85706750     0.02400
H2131       H  0.63232650  0.61557999  0.94706986     0.16900
H2132       H  0.62050562  0.56199393  0.86623597     0.16700
C2133       C  0.89520827  0.89588399  0.85242159     0.88500
C2134       C  0.91461613  0.86905703  0.86849231    -0.51700
C2135       C  0.89512490  0.84764214  0.88516387     0.11400
C2136       C  0.85857409  0.85476871  0.88381387     0.22400
C2137       C  0.87019598  0.87938863  0.83050324    -0.52500
C2138       C  0.85094109  0.85823078  0.84703762     0.11500
C2139       C  0.87525922  0.91028703  0.88072192    -0.52000
C2140       C  0.85626886  0.88850248  0.89709024     0.12100
H2141       H  0.94109699  0.86819078  0.86847003     0.16600
H2142       H  0.84269731  0.83735299  0.89716664     0.02400
H2143       H  0.86730705  0.88460361  0.80438331     0.16900
H2144       H  0.87555300  0.93536911  0.88679899     0.16700
C2145       C  0.58042893  0.60254400  0.83440534    -0.11300
C2146       C  0.56163989  0.59042975  0.81517360    -0.12800
C2147       C  0.59421974  0.58283754  0.65957544    -0.11300
C2148       C  0.58164076  0.56715095  0.68116753    -0.12800
C2149       C  0.92558618  0.93879159  0.81469688    -0.11300
C2150       C  0.91415571  0.91952365  0.83363831    -0.12800
C2151       C  0.58355700  0.93227404  0.66208164    -0.11300
C2152       C  0.56843364  0.95201981  0.67727145    -0.12800
C2153       C  0.91276797  0.91999871  0.66402213    -0.11300
C2154       C  0.93122142  0.93425243  0.68196456    -0.12800
C2155       C  0.90378908  0.58255595  0.67027067    -0.11300
C2156       C  0.91516681  0.56491989  0.69064595    -0.12800
C2157       C  0.55747964  0.92362409  0.80469541    -0.11300
C2158       C  0.57490877  0.90645444  0.82069513    -0.12800
C2159       C  0.83506280  0.58410808  0.58418191    -0.11300
C2160       C  0.81585039  0.56561958  0.57204505    -0.12800
C2161       C  0.68832222  0.57621411  0.55490531    -0.11300
C2162       C  0.66833615  0.58998458  0.57093162    -0.12800
C2163       C  0.68467006  0.94737756  0.57837762    -0.11300
C2164       C  0.66575861  0.92977002  0.59252361    -0.12800
C2165       C  0.81463878  0.90961315  0.94079695    -0.11300
C2166       C  0.83400015  0.89727262  0.92276003    -0.12800
C2167       C  0.68753089  0.55455309  0.92205902    -0.11300
C2168       C  0.67001886  0.57410437  0.90974505    -0.12800
C2169       C  0.83400517  0.91624296  0.57851268    -0.11300
C2170       C  0.81711654  0.93058319  0.55942578    -0.12800
C2171       C  0.67031644  0.91643229  0.89398131    -0.11300
C2172       C  0.68908334  0.93249180  0.90985017    -0.12800
C2173       C  0.92183595  0.58930478  0.84113713    -0.11300
C2174       C  0.93829918  0.57373681  0.82227260    -0.12800
C2175       C  0.83904500  0.59150628  0.92302791    -0.11300
C2176       C  0.81916444  0.57478642  0.93710363    -0.12800
C2177       C  0.59257437  0.67784632  0.58585515    -0.11300
C2178       C  0.58070277  0.69790252  0.56875861    -0.12800
C2179       C  0.57996877  0.85238998  0.58247582    -0.11300
C2180       C  0.56263535  0.83707755  0.56394369    -0.12800
C2181       C  0.92177889  0.85427732  0.57804091    -0.11300
C2182       C  0.94107034  0.84314402  0.55874313    -0.12800
C2183       C  0.59879190  0.83353520  0.91484122    -0.11300
C2184       C  0.58741731  0.81568007  0.93543453    -0.12800
C2185       C  0.90797836  0.82467881  0.90779499    -0.11300
C2186       C  0.92090221  0.80931307  0.92898079    -0.12800
C2187       C  0.59308885  0.66398242  0.92577129    -0.11300
C2188       C  0.57553886  0.68010442  0.94284994    -0.12800
C2189       C  0.92862144  0.66113723  0.58028555    -0.11300
C2190       C  0.94655381  0.67801348  0.56370296    -0.12800
C2191       C  0.91880921  0.68090084  0.91687617    -0.11300
C2192       C  0.93490454  0.69906460  0.93317430    -0.12800
C2193       C  0.82464387  0.84226916  0.83097795    -0.11300
C2194       C  0.80507750  0.82912645  0.81385981    -0.12800
C2195       C  0.68167544  0.68867557  0.82161367    -0.11300
C2196       C  0.66748037  0.67110874  0.84062719    -0.12800
C2197       C  0.82074289  0.67995962  0.68117757    -0.11300
C2198       C  0.83710513  0.66575612  0.66124524    -0.12800
C2199       C  0.67831818  0.82560369  0.68787465    -0.11300
C2200       C  0.66102070  0.84286249  0.67222623    -0.12800
C2201       C  0.83434542  0.83021798  0.66154840    -0.11300
C2202       C  0.81829396  0.81324474  0.67968442    -0.12800
C2203       C  0.81235214  0.66479218  0.81703717    -0.11300
C2204       C  0.83240337  0.65442633  0.83582703    -0.12800
C2205       C  0.67951668  0.80613458  0.81448335    -0.11300
C2206       C  0.66382762  0.82645999  0.82816013    -0.12800
C2207       C  0.69164877  0.65791619  0.68689893    -0.11300
C2208       C  0.67624907  0.64589252  0.66521279    -0.12800
loop_ 
_geom_bond_atom_site_label_1 
_geom_bond_atom_site_label_2 
_geom_bond_distance 
_geom_bond_site_symmetry_2 
_ccdc_geom_bond_type 
O1            C9   1.267       .  A
O1          Co21   2.005       .  S
O2           C10   1.245       .  A
O2          Co22   1.974       .  S
O3           C11   1.262       .  A
O3          Co23   1.974       .  S
O4           C12   1.252       .  A
O4          Co24   1.999       .  S
O5           C11   1.268       .  A
O5          Co22   2.012       .  S
O6           C12   1.244       .  A
O6          Co21   1.971       .  S
O7           C10   1.251       .  A
O7          Co24   2.000       .  S
O8            C9   1.259       .  A
O8          Co23   1.956       .  S
C9          C275   1.418       .  S
C10         C270   1.441       .  S
C11         C267   1.434       .  S
C12         C265   1.440       .  S
O13          C26   1.269       .  A
O13         Co21   1.905       .  S
O14          C27   1.258       .  A
O14         Co22   1.995       .  S
O15          C28   1.264       .  A
O15         Co23   2.008       .  S
O16          C29   1.292       .  A
O16         Co24   2.054       .  S
O17          C29   1.271       .  A
O17         Co22   1.894       .  S
O18          C28   1.261       .  A
O18         Co21   1.989       .  S
O19          C26   1.295       .  A
O19         Co24   2.077       .  S
O20          C27   1.263       .  A
O20         Co23   2.010       .  S
Co21         O25   1.944       .  S
Co22         O25   1.932       .  S
Co23         O25   2.089       .  S
Co24         O25   2.248       .  S
C26         C271   1.442       .  S
C27         C273   1.440       .  S
C28         C263   1.439       .  S
C29         C262   1.419       .  S
O30          C38   1.258       .  A
O30        Co326   1.983       .  S
O31          C39   1.270       .  A
O31        Co327   1.985       .  S
O32          C40   1.291       .  A
O32        Co328   2.088   1_554  S
O33          C41   1.275       .  A
O33       Co1433   2.036   1_554  S
O34          C40   1.270       .  A
O34        Co327   1.894       .  S
O35          C41   1.256       .  A
O35        Co326   1.949       .  S
O36          C39   1.277       .  A
O36        Co329   2.039   1_554  S
O37          C38   1.263       .  A
O37       Co1432   2.019   1_554  S
C38         C258   1.449       .  S
C39         C248   1.457       .  S
C40         C246   1.428       .  S
C41         C250   1.433       .  S
O42          C55   1.272       .  A
O42         Co50   2.032       .  S
O43          C56   1.296       .  A
O43         Co51   2.114       .  S
O44          C57   1.268       .  A
O44       Co1156   1.972       .  S
O45          C58   1.251       .  A
O45         Co53   1.963       .  S
O46          C58   1.265       .  A
O46         Co51   2.026       .  S
O47          C57   1.275       .  A
O47         Co50   2.021       .  S
O48          C55   1.253       .  A
O48       Co1157   1.950       .  S
O49          C56   1.263       .  A
O49         Co52   1.894       .  S
Co50        O306   1.983       .  S
Co50        O311   1.949       .  S
Co50       O1158   2.039       .  S
Co51        O307   1.985       .  S
Co51        O310   1.894       .  S
Co51         O54   2.019   1_455  S
Co52        O308   2.088       .  S
Co52       O1417   2.019   1_455  S
Co52       O1148   1.972   1_455  S
Co52         O54   2.000   1_455  S
Co53       O1413   2.036   1_455  S
Co53        O312   2.039       .  S
Co53       O1152   1.950   1_455  S
Co53         O54   2.031   1_455  S
O54       Co1154   2.039       .  S
C55         C254   1.432       .  S
C56         C256   1.441       .  S
C57         C260   1.435       .  S
C58         C252   1.439       .  S
C59          C60   1.533       .  S
C59          C65   1.529       .  S
C59          C63   1.535       .  S
C59         C259   1.469       .  S
C60          H67   1.087       .  S
C60          C61   1.365       .  D
C61          C62   1.543       .  S
C61         C272   1.449       .  S
C62          C66   1.551       .  S
C62          C64   1.544       .  S
C62          H68   1.111       .  S
C63          H69   1.087       .  S
C63          C64   1.364       .  D
C64         C243   1.448       .  S
C65          H70   1.087       .  S
C65          C66   1.361       .  D
C66         C241   1.454       .  S
O71          C79   1.262       .  A
O71         Co91   1.962       .  S
O72          C80   1.247       .  A
O72        Co368   1.958   1_554  S
O73          C81   1.271       .  A
O73        Co645   2.030       .  S
O74          C82   1.287       .  A
O74         Co94   2.081       .  S
O75          C81   1.256       .  A
O75         Co92   1.958       .  S
O76          C82   1.264       .  A
O76        Co367   1.896   1_554  S
O77          C80   1.266       .  A
O77        Co646   2.028       .  S
O78          C79   1.280       .  A
O78         Co93   2.042   1_545  S
C79         C235   1.440       .  S
C80         C231   1.435       .  S
C81         C240   1.440       .  S
C82         C229   1.420       .  S
O83          C96   1.292       .  A
O83        Co367   2.096   1_554  S
O84          C97   1.269       .  A
O84         Co92   2.014       .  S
O85          C98   1.253       .  A
O85         Co93   1.974   1_545  S
O86          C99   1.262       .  A
O86        Co646   1.961       .  S
O87          C99   1.280       .  A
O87        Co368   2.042   1_554  S
O88          C98   1.262       .  A
O88         Co91   2.014       .  S
O89          C96   1.266       .  A
O89         Co94   1.910       .  S
O90          C97   1.256       .  A
O90        Co645   1.949       .  S
Co91        O352   1.896       .  S
Co91        O359   2.096       .  S
Co91         O95   2.010   1_545  S
Co92        O348   1.958       .  S
Co92        O363   2.042       .  S
Co92        O647   2.031       .  S
Co93        O625   2.030       .  S
Co93        O642   1.949       .  S
Co93         O95   2.032       .  S
Co94        O629   2.028   1_545  S
Co94        O638   1.961   1_545  S
Co94        O371   2.018   1_544  S
O95        Co644   2.031       .  S
O95        Co370   2.018   1_565  S
C96         C228   1.442       .  S
C97         C233   1.420       .  S
C98         C244   1.440       .  S
C99         C238   1.440       .  S
C100        C101   1.532       .  S
C100        C106   1.538       .  S
C100        C104   1.539       .  S
C100        C226   1.482       .  S
C101        H108   1.087       .  S
C101        C102   1.361       .  D
C102        C103   1.543       .  S
C102        C239   1.447       .  S
C103        C107   1.536       .  S
C103        C105   1.537       .  S
C103        H109   1.111       .  S
C104        H110   1.086       .  S
C104        C105   1.370       .  D
C105        C274   1.449       .  S
C106        H111   1.086       .  S
C106        C107   1.370       .  D
C107        C251   1.448       .  S
O112        C120   1.278       .  A
O112      Co1236   2.037       .  S
O113        C121   1.265       .  A
O113       Co133   2.021   1_455  S
O114        C122   1.269       .  A
O114       Co686   1.903       .  S
O115        C123   1.259       .  A
O115       Co135   1.962       .  S
O116        C122   1.289       .  A
O116      Co1237   2.084       .  S
O117        C123   1.273       .  A
O117       Co132   2.033   1_455  S
O118        C121   1.259       .  A
O118       Co687   1.983       .  S
O119        C120   1.267       .  A
O119       Co134   1.975       .  S
C120        C242   1.448       .  S
C121        C225   1.448       .  S
C122        C217   1.432       .  S
C123        C214   1.441       .  S
O124        C137   1.252       .  A
O124       Co132   1.946   1_455  S
O125        C138   1.265       .  A
O125      Co1237   1.902       .  S
O126        C139   1.265       .  A
O126       Co134   2.030       .  S
O127        C140   1.277       .  A
O127       Co687   2.030       .  S
O128        C140   1.265       .  A
O128       Co133   1.971   1_455  S
O129        C139   1.250       .  A
O129      Co1236   1.962       .  S
O130        C137   1.272       .  A
O130       Co135   2.030       .  S
O131        C138   1.292       .  A
O131       Co686   2.102       .  S
Co132      O1216   2.037       .  S
Co132      O1233   1.962       .  S
Co132       O136   2.030   1_655  S
Co133      O1220   2.084       .  S
Co133      O1229   1.902       .  S
Co133       O688   2.006   1_655  S
Co134       O666   1.903   1_545  S
Co134       O683   2.102   1_545  S
Co134      O1240   2.026       .  S
Co135       O670   1.983   1_545  S
Co135       O679   2.030   1_545  S
Co135       O136   2.044       .  S
O136       Co685   2.006   1_445  S
O136      Co1238   2.026   1_455  S
C137        C216   1.431       .  S
C138        C222   1.441       .  S
C139        C224   1.441       .  S
C140        C220   1.441       .  S
C141        C142   1.537       .  S
C141        C147   1.529       .  S
C141        C145   1.531       .  S
C141        C269   1.474       .  S
C142        H149   1.086       .  S
C142        C143   1.369       .  D
C143        C144   1.535       .  S
C143        C249   1.443       .  S
C144        C148   1.544       .  S
C144        C146   1.544       .  S
C144        H150   1.111       .  S
C145        H151   1.087       .  S
C145        C146   1.363       .  D
C146        C221   1.447       .  S
C147        H152   1.087       .  S
C147        C148   1.363       .  D
C148        C237   1.446       .  S
C153        C154   1.529       .  S
C153        C159   1.538       .  S
C153        C157   1.527       .  S
C153        C245   1.462       .  S
C154        H161   1.087       .  S
C154        C155   1.363       .  D
C155        C156   1.526       .  S
C155        C276   1.427       .  S
C156        C160   1.530       .  S
C156        C158   1.533       .  S
C156        H162   1.112       .  S
C157        H163   1.088       .  S
C157        C158   1.358       .  D
C158        C230   1.426       .  S
C159        H164   1.086       .  S
C159        C160   1.370       .  D
C160        C215   1.439       .  S
C165        C166   1.539       .  S
C165        C171   1.535       .  S
C165        C169   1.537       .  S
C165        C257   1.483       .  S
C166        H173   1.086       .  S
C166        C167   1.370       .  D
C167        C168   1.536       .  S
C167        C223   1.450       .  S
C168        C172   1.540       .  S
C168        C170   1.540       .  S
C168        H174   1.112       .  S
C169        H175   1.087       .  S
C169        C170   1.367       .  D
C170        C227   1.448       .  S
C171        H176   1.087       .  S
C171        C172   1.363       .  D
C172        C266   1.447       .  S
C177        C178   1.523       .  S
C177        C183   1.531       .  S
C177        C181   1.535       .  S
C177        C268   1.467       .  S
C178        H185   1.088       .  S
C178        C179   1.357       .  D
C179        C180   1.548       .  S
C179        C232   1.443       .  S
C180        C184   1.558       .  S
C180        C182   1.542       .  S
C180        H186   1.111       .  S
C181        H187   1.087       .  S
C181        C182   1.368       .  D
C182        C219   1.448       .  S
C183        H188   1.087       .  S
C183        C184   1.365       .  D
C184        C247   1.462       .  S
C189        C190   1.532       .  S
C189        C195   1.530       .  S
C189        C193   1.538       .  S
C189        C236   1.475       .  S
C190        H197   1.087       .  S
C190        C191   1.363       .  D
C191        C192   1.542       .  S
C191        C264   1.446       .  S
C192        C196   1.542       .  S
C192        C194   1.540       .  S
C192        H198   1.111       .  S
C193        H199   1.087       .  S
C193        C194   1.368       .  D
C194        C255   1.447       .  S
C195        H200   1.087       .  S
C195        C196   1.364       .  D
C196        C213   1.448       .  S
C201        C202   1.538       .  S
C201        C207   1.532       .  S
C201        C205   1.525       .  S
C201        C218   1.464       .  S
C202        H209   1.086       .  S
C202        C203   1.371       .  D
C203        C204   1.533       .  S
C203        C253   1.440       .  S
C204        C208   1.526       .  S
C204        C206   1.532       .  S
C204        H210   1.112       .  S
C205        H211   1.088       .  S
C205        C206   1.356       .  D
C206        C261   1.427       .  S
C207        H212   1.087       .  S
C207        C208   1.364       .  D
C208        C234   1.429       .  S
C213        C214   1.210       .  T
C215        C216   1.204       .  T
C217        C218   1.204       .  T
C219        C220   1.210       .  T
C221        C222   1.209       .  T
C223        C224   1.210       .  T
C225        C226   1.214       .  T
C227        C228   1.210       .  T
C229        C230   1.197       .  T
C231        C232   1.207       .  T
C233        C234   1.198       .  T
C235        C236   1.210       .  T
C237        C238   1.209       .  T
C239        C240   1.209       .  T
C241        C242   1.214       .  T
C243        C244   1.209       .  T
C245        C246   1.203       .  T
C247        C248   1.219       .  T
C249        C250   1.206       .  T
C251        C252   1.209       .  T
C253        C254   1.205       .  T
C255        C256   1.209       .  T
C257        C258   1.214       .  T
C259        C260   1.207       .  T
C261        C262   1.197       .  T
C263        C264   1.208       .  T
C265        C266   1.209       .  T
C267        C268   1.206       .  T
C269        C270   1.209       .  T
C271        C272   1.210       .  T
C273        C274   1.210       .  T
C275        C276   1.196       .  T
O277        C285   1.267       .  A
O277       Co297   2.005       .  S
O278        C286   1.245       .  A
O278       Co298   1.974       .  S
O279        C287   1.262       .  A
O279       Co299   1.974       .  S
O280        C288   1.252       .  A
O280       Co300   1.999       .  S
O281        C287   1.268       .  A
O281       Co298   2.012       .  S
O282        C288   1.244       .  A
O282       Co297   1.971       .  S
O283        C286   1.251       .  A
O283       Co300   2.000       .  S
O284        C285   1.259       .  A
O284       Co299   1.956       .  S
C285        C551   1.418       .  S
C286        C546   1.441       .  S
C287        C543   1.434       .  S
C288        C541   1.440       .  S
O289        C302   1.269       .  A
O289       Co297   1.905       .  S
O290        C303   1.258       .  A
O290       Co298   1.995       .  S
O291        C304   1.264       .  A
O291       Co299   2.008       .  S
O292        C305   1.292       .  A
O292       Co300   2.054       .  S
O293        C305   1.271       .  A
O293       Co298   1.894       .  S
O294        C304   1.261       .  A
O294       Co297   1.989       .  S
O295        C302   1.295       .  A
O295       Co300   2.077       .  S
O296        C303   1.263       .  A
O296       Co299   2.010       .  S
Co297       O301   1.944       .  S
Co298       O301   1.932       .  S
Co299       O301   2.089       .  S
Co300       O301   2.248       .  S
C302        C547   1.442       .  S
C303        C549   1.440       .  S
C304        C539   1.439       .  S
C305        C538   1.419       .  S
O306        C314   1.258       .  A
O307        C315   1.270       .  A
O308        C316   1.291       .  A
O309        C317   1.275       .  A
O309      Co1157   2.036       .  S
O310        C316   1.270       .  A
O311        C317   1.256       .  A
O312        C315   1.277       .  A
O313        C314   1.263       .  A
O313      Co1156   2.019       .  S
C314        C534   1.449       .  S
C315        C524   1.457       .  S
C316        C522   1.428       .  S
C317        C526   1.433       .  S
O318        C331   1.272       .  A
O318       Co326   2.032   1_556  S
O319        C332   1.296       .  A
O319       Co327   2.114   1_556  S
O320        C333   1.268       .  A
O320      Co1432   1.972       .  S
O321        C334   1.251       .  A
O321       Co329   1.963       .  S
O322        C334   1.265       .  A
O322       Co327   2.026   1_556  S
O323        C333   1.275       .  A
O323       Co326   2.021   1_556  S
O324        C331   1.253       .  A
O324      Co1433   1.950       .  S
O325        C332   1.263       .  A
O325       Co328   1.894       .  S
Co326      O1434   2.039   1_554  S
Co327       O330   2.019   1_454  S
Co328      O1141   2.019   1_456  S
Co328      O1424   1.972   1_455  S
Co328       O330   2.000   1_455  S
Co329      O1137   2.036   1_456  S
Co329      O1428   1.950   1_455  S
Co329       O330   2.031   1_455  S
O330      Co1430   2.039   1_556  S
C331        C530   1.432       .  S
C332        C532   1.441       .  S
C333        C536   1.435       .  S
C334        C528   1.439       .  S
C335        C336   1.533       .  S
C335        C341   1.529       .  S
C335        C339   1.535       .  S
C335        C535   1.469       .  S
C336        H343   1.087       .  S
C336        C337   1.365       .  D
C337        C338   1.543       .  S
C337        C548   1.449       .  S
C338        C342   1.551       .  S
C338        C340   1.544       .  S
C338        H344   1.111       .  S
C339        H345   1.087       .  S
C339        C340   1.364       .  D
C340        C519   1.448       .  S
C341        H346   1.087       .  S
C341        C342   1.361       .  D
C342        C517   1.454       .  S
O347        C355   1.262       .  A
O347       Co367   1.962       .  S
O348        C356   1.247       .  A
O349        C357   1.271       .  A
O349       Co921   2.030       .  S
O350        C358   1.287       .  A
O350       Co370   2.081       .  S
O351        C357   1.256       .  A
O351       Co368   1.958       .  S
O352        C358   1.264       .  A
O353        C356   1.266       .  A
O353       Co922   2.028       .  S
O354        C355   1.280       .  A
O354       Co369   2.042   1_545  S
C355        C511   1.440       .  S
C356        C507   1.435       .  S
C357        C516   1.440       .  S
C358        C505   1.420       .  S
O359        C372   1.292       .  A
O360        C373   1.269       .  A
O360       Co368   2.014       .  S
O361        C374   1.253       .  A
O361       Co369   1.974   1_545  S
O362        C375   1.262       .  A
O362       Co922   1.961       .  S
O363        C375   1.280       .  A
O364        C374   1.262       .  A
O364       Co367   2.014       .  S
O365        C372   1.266       .  A
O365       Co370   1.910       .  S
O366        C373   1.256       .  A
O366       Co921   1.949       .  S
Co367       O371   2.010   1_545  S
Co368       O923   2.031       .  S
Co369       O901   2.030       .  S
Co369       O918   1.949       .  S
Co369       O371   2.032       .  S
Co370       O905   2.028   1_545  S
Co370       O914   1.961   1_545  S
O371       Co920   2.031       .  S
C372        C504   1.442       .  S
C373        C509   1.420       .  S
C374        C520   1.440       .  S
C375        C514   1.440       .  S
C376        C377   1.531       .  S
C376        C382   1.538       .  S
C376        C380   1.539       .  S
C376        C502   1.482       .  S
C377        H384   1.087       .  S
C377        C378   1.361       .  D
C378        C379   1.543       .  S
C378        C515   1.447       .  S
C379        C383   1.536       .  S
C379        C381   1.537       .  S
C379        H385   1.111       .  S
C380        H386   1.086       .  S
C380        C381   1.370       .  D
C381        C550   1.449       .  S
C382        H387   1.086       .  S
C382        C383   1.370       .  D
C383        C527   1.448       .  S
O388        C396   1.278       .  A
O388      Co1512   2.037       .  S
O389        C397   1.265       .  A
O389       Co409   2.021   1_455  S
O390        C398   1.269       .  A
O390       Co962   1.902       .  S
O391        C399   1.259       .  A
O391       Co411   1.962       .  S
O392        C398   1.289       .  A
O392      Co1513   2.084       .  S
O393        C399   1.273       .  A
O393       Co408   2.033   1_455  S
O394        C397   1.259       .  A
O394       Co963   1.983       .  S
O395        C396   1.267       .  A
O395       Co410   1.975       .  S
C396        C518   1.448       .  S
C397        C501   1.448       .  S
C398        C493   1.432       .  S
C399        C490   1.441       .  S
O400        C413   1.252       .  A
O400       Co408   1.946   1_455  S
O401        C414   1.265       .  A
O401      Co1513   1.902       .  S
O402        C415   1.265       .  A
O402       Co410   2.030       .  S
O403        C416   1.277       .  A
O403       Co963   2.030       .  S
O404        C416   1.265       .  A
O404       Co409   1.971   1_455  S
O405        C415   1.250       .  A
O405      Co1512   1.962       .  S
O406        C413   1.272       .  A
O406       Co411   2.030       .  S
O407        C414   1.292       .  A
O407       Co962   2.102       .  S
Co408      O1492   2.037       .  S
Co408      O1509   1.962       .  S
Co408       O412   2.030   1_655  S
Co409      O1496   2.084       .  S
Co409      O1505   1.902       .  S
Co409       O964   2.006   1_655  S
Co410       O942   1.902   1_545  S
Co410       O959   2.102   1_545  S
Co410      O1516   2.026       .  S
Co411       O946   1.983   1_545  S
Co411       O955   2.030   1_545  S
Co411       O412   2.044       .  S
O412       Co961   2.006   1_445  S
O412      Co1514   2.026   1_455  S
C413        C492   1.431       .  S
C414        C498   1.441       .  S
C415        C500   1.441       .  S
C416        C496   1.441       .  S
C417        C418   1.537       .  S
C417        C423   1.529       .  S
C417        C421   1.531       .  S
C417        C545   1.474       .  S
C418        H425   1.086       .  S
C418        C419   1.369       .  D
C419        C420   1.535       .  S
C419        C525   1.443       .  S
C420        C424   1.544       .  S
C420        C422   1.544       .  S
C420        H426   1.111       .  S
C421        H427   1.087       .  S
C421        C422   1.363       .  D
C422        C497   1.447       .  S
C423        H428   1.087       .  S
C423        C424   1.363       .  D
C424        C513   1.446       .  S
C429        C430   1.529       .  S
C429        C435   1.538       .  S
C429        C433   1.527       .  S
C429        C521   1.462       .  S
C430        H437   1.087       .  S
C430        C431   1.363       .  D
C431        C432   1.526       .  S
C431        C552   1.427       .  S
C432        C436   1.530       .  S
C432        C434   1.533       .  S
C432        H438   1.112       .  S
C433        H439   1.088       .  S
C433        C434   1.358       .  D
C434        C506   1.426       .  S
C435        H440   1.086       .  S
C435        C436   1.370       .  D
C436        C491   1.439       .  S
C441        C442   1.539       .  S
C441        C447   1.535       .  S
C441        C445   1.537       .  S
C441        C533   1.483       .  S
C442        H449   1.086       .  S
C442        C443   1.370       .  D
C443        C444   1.536       .  S
C443        C499   1.450       .  S
C444        C448   1.540       .  S
C444        C446   1.540       .  S
C444        H450   1.112       .  S
C445        H451   1.087       .  S
C445        C446   1.367       .  D
C446        C503   1.448       .  S
C447        H452   1.087       .  S
C447        C448   1.364       .  D
C448        C542   1.447       .  S
C453        C454   1.523       .  S
C453        C459   1.531       .  S
C453        C457   1.535       .  S
C453        C544   1.467       .  S
C454        H461   1.088       .  S
C454        C455   1.357       .  D
C455        C456   1.548       .  S
C455        C508   1.443       .  S
C456        C460   1.558       .  S
C456        C458   1.542       .  S
C456        H462   1.111       .  S
C457        H463   1.087       .  S
C457        C458   1.368       .  D
C458        C495   1.448       .  S
C459        H464   1.087       .  S
C459        C460   1.365       .  D
C460        C523   1.462       .  S
C465        C466   1.532       .  S
C465        C471   1.530       .  S
C465        C469   1.538       .  S
C465        C512   1.475       .  S
C466        H473   1.087       .  S
C466        C467   1.363       .  D
C467        C468   1.542       .  S
C467        C540   1.446       .  S
C468        C472   1.542       .  S
C468        C470   1.540       .  S
C468        H474   1.111       .  S
C469        H475   1.087       .  S
C469        C470   1.368       .  D
C470        C531   1.447       .  S
C471        H476   1.087       .  S
C471        C472   1.364       .  D
C472        C489   1.448       .  S
C477        C478   1.538       .  S
C477        C483   1.532       .  S
C477        C481   1.525       .  S
C477        C494   1.464       .  S
C478        H485   1.086       .  S
C478        C479   1.371       .  D
C479        C480   1.533       .  S
C479        C529   1.440       .  S
C480        C484   1.526       .  S
C480        C482   1.532       .  S
C480        H486   1.112       .  S
C481        H487   1.088       .  S
C481        C482   1.356       .  D
C482        C537   1.427       .  S
C483        H488   1.087       .  S
C483        C484   1.364       .  D
C484        C510   1.429       .  S
C489        C490   1.210       .  T
C491        C492   1.204       .  T
C493        C494   1.204       .  T
C495        C496   1.210       .  T
C497        C498   1.209       .  T
C499        C500   1.210       .  T
C501        C502   1.214       .  T
C503        C504   1.210       .  T
C505        C506   1.197       .  T
C507        C508   1.207       .  T
C509        C510   1.198       .  T
C511        C512   1.210       .  T
C513        C514   1.209       .  T
C515        C516   1.209       .  T
C517        C518   1.214       .  T
C519        C520   1.209       .  T
C521        C522   1.203       .  T
C523        C524   1.219       .  T
C525        C526   1.206       .  T
C527        C528   1.209       .  T
C529        C530   1.205       .  T
C531        C532   1.209       .  T
C533        C534   1.214       .  T
C535        C536   1.207       .  T
C537        C538   1.197       .  T
C539        C540   1.208       .  T
C541        C542   1.209       .  T
C543        C544   1.206       .  T
C545        C546   1.210       .  T
C547        C548   1.210       .  T
C549        C550   1.210       .  T
C551        C552   1.196       .  T
O553        C561   1.267       .  A
O553       Co573   2.005       .  S
O554        C562   1.245       .  A
O554       Co574   1.974       .  S
O555        C563   1.262       .  A
O555       Co575   1.974       .  S
O556        C564   1.252       .  A
O556       Co576   1.999       .  S
O557        C563   1.268       .  A
O557       Co574   2.012       .  S
O558        C564   1.244       .  A
O558       Co573   1.971       .  S
O559        C562   1.251       .  A
O559       Co576   2.000       .  S
O560        C561   1.259       .  A
O560       Co575   1.956       .  S
C561        C827   1.418       .  S
C562        C822   1.441       .  S
C563        C819   1.434       .  S
C564        C817   1.440       .  S
O565        C578   1.269       .  A
O565       Co573   1.905       .  S
O566        C579   1.258       .  A
O566       Co574   1.995       .  S
O567        C580   1.264       .  A
O567       Co575   2.008       .  S
O568        C581   1.292       .  A
O568       Co576   2.054       .  S
O569        C581   1.271       .  A
O569       Co574   1.894       .  S
O570        C580   1.261       .  A
O570       Co573   1.989       .  S
O571        C578   1.295       .  A
O571       Co576   2.077       .  S
O572        C579   1.263       .  A
O572       Co575   2.010       .  S
Co573       O577   1.944       .  S
Co574       O577   1.932       .  S
Co575       O577   2.089       .  S
Co576       O577   2.248       .  S
C578        C823   1.442       .  S
C579        C825   1.440       .  S
C580        C815   1.439       .  S
C581        C814   1.419       .  S
O582        C590   1.258       .  A
O582       Co878   1.983       .  S
O583        C591   1.270       .  A
O583       Co879   1.985       .  S
O584        C592   1.291       .  A
O584       Co880   2.088   1_554  S
O585        C593   1.275       .  A
O585      Co1985   2.036   1_554  S
O586        C592   1.270       .  A
O586       Co879   1.894       .  S
O587        C593   1.256       .  A
O587       Co878   1.949       .  S
O588        C591   1.277       .  A
O588       Co881   2.039   1_554  S
O589        C590   1.263       .  A
O589      Co1984   2.019   1_554  S
C590        C810   1.449       .  S
C591        C800   1.457       .  S
C592        C798   1.428       .  S
C593        C802   1.433       .  S
O594        C607   1.272       .  A
O594       Co602   2.032       .  S
O595        C608   1.296       .  A
O595       Co603   2.114       .  S
O596        C609   1.268       .  A
O596      Co1708   1.972       .  S
O597        C610   1.251       .  A
O597       Co605   1.963       .  S
O598        C610   1.265       .  A
O598       Co603   2.026       .  S
O599        C609   1.275       .  A
O599       Co602   2.021       .  S
O600        C607   1.253       .  A
O600      Co1709   1.950       .  S
O601        C608   1.263       .  A
O601       Co604   1.894       .  S
Co602       O858   1.983       .  S
Co602       O863   1.949       .  S
Co602      O1710   2.039       .  S
Co603       O859   1.985       .  S
Co603       O862   1.894       .  S
Co603       O606   2.019   1_455  S
Co604       O860   2.088       .  S
Co604      O1969   2.019   1_455  S
Co604      O1700   1.972   1_455  S
Co604       O606   2.000   1_455  S
Co605      O1965   2.036   1_455  S
Co605       O864   2.039       .  S
Co605      O1704   1.950   1_455  S
Co605       O606   2.031   1_455  S
O606      Co1706   2.039       .  S
C607        C806   1.432       .  S
C608        C808   1.441       .  S
C609        C812   1.435       .  S
C610        C804   1.439       .  S
C611        C612   1.533       .  S
C611        C617   1.529       .  S
C611        C615   1.535       .  S
C611        C811   1.469       .  S
C612        H619   1.087       .  S
C612        C613   1.365       .  D
C613        C614   1.543       .  S
C613        C824   1.449       .  S
C614        C618   1.551       .  S
C614        C616   1.544       .  S
C614        H620   1.111       .  S
C615        H621   1.087       .  S
C615        C616   1.364       .  D
C616        C795   1.448       .  S
C617        H622   1.087       .  S
C617        C618   1.361       .  D
C618        C793   1.454       .  S
O623        C631   1.262       .  A
O623       Co643   1.962       .  S
O624        C632   1.247       .  A
O624       Co920   1.958   1_554  S
O625        C633   1.271       .  A
O626        C634   1.287       .  A
O626       Co646   2.081       .  S
O627        C633   1.256       .  A
O627       Co644   1.958       .  S
O628        C634   1.264       .  A
O628       Co919   1.896   1_554  S
O629        C632   1.266       .  A
O630        C631   1.280       .  A
O630       Co645   2.042       .  S
C631        C787   1.440       .  S
C632        C783   1.435       .  S
C633        C792   1.440       .  S
C634        C781   1.420       .  S
O635        C648   1.292       .  A
O635       Co919   2.096   1_554  S
O636        C649   1.269       .  A
O636       Co644   2.014       .  S
O637        C650   1.253       .  A
O637       Co645   1.974       .  S
O638        C651   1.262       .  A
O639        C651   1.280       .  A
O639       Co920   2.042   1_554  S
O640        C650   1.262       .  A
O640       Co643   2.014       .  S
O641        C648   1.266       .  A
O641       Co646   1.910       .  S
O642        C649   1.256       .  A
Co643       O904   1.896       .  S
Co643       O911   2.096       .  S
Co643       O647   2.010       .  S
Co644       O900   1.958       .  S
Co644       O915   2.042       .  S
Co645       O647   2.032       .  S
Co646       O923   2.018   1_554  S
O647       Co922   2.018       .  S
C648        C780   1.442       .  S
C649        C785   1.420       .  S
C650        C796   1.440       .  S
C651        C790   1.440       .  S
C652        C653   1.532       .  S
C652        C658   1.538       .  S
C652        C656   1.539       .  S
C652        C778   1.482       .  S
C653        H660   1.087       .  S
C653        C654   1.361       .  D
C654        C655   1.543       .  S
C654        C791   1.447       .  S
C655        C659   1.536       .  S
C655        C657   1.537       .  S
C655        H661   1.111       .  S
C656        H662   1.086       .  S
C656        C657   1.370       .  D
C657        C826   1.449       .  S
C658        H663   1.086       .  S
C658        C659   1.370       .  D
C659        C803   1.448       .  S
O664        C672   1.278       .  A
O664      Co1788   2.037       .  S
O665        C673   1.265       .  A
O665       Co685   2.021   1_455  S
O666        C674   1.269       .  A
O667        C675   1.259       .  A
O667       Co687   1.962       .  S
O668        C674   1.289       .  A
O668      Co1789   2.084       .  S
O669        C675   1.273       .  A
O669       Co684   2.033   1_455  S
O670        C673   1.259       .  A
O671        C672   1.267       .  A
O671       Co686   1.975       .  S
C672        C794   1.448       .  S
C673        C777   1.448       .  S
C674        C769   1.432       .  S
C675        C766   1.441       .  S
O676        C689   1.252       .  A
O676       Co684   1.946   1_455  S
O677        C690   1.265       .  A
O677      Co1789   1.902       .  S
O678        C691   1.265       .  A
O678       Co686   2.030       .  S
O679        C692   1.277       .  A
O680        C692   1.265       .  A
O680       Co685   1.971   1_455  S
O681        C691   1.250       .  A
O681      Co1788   1.962       .  S
O682        C689   1.272       .  A
O682       Co687   2.030       .  S
O683        C690   1.292       .  A
Co684      O1768   2.037       .  S
Co684      O1785   1.962       .  S
Co684       O688   2.030   1_655  S
Co685      O1772   2.084       .  S
Co685      O1781   1.902       .  S
Co686      O1792   2.026       .  S
Co687       O688   2.044       .  S
O688      Co1790   2.026   1_455  S
C689        C768   1.431       .  S
C690        C774   1.441       .  S
C691        C776   1.441       .  S
C692        C772   1.441       .  S
C693        C694   1.537       .  S
C693        C699   1.529       .  S
C693        C697   1.531       .  S
C693        C821   1.474       .  S
C694        H701   1.086       .  S
C694        C695   1.369       .  D
C695        C696   1.535       .  S
C695        C801   1.443       .  S
C696        C700   1.544       .  S
C696        C698   1.544       .  S
C696        H702   1.111       .  S
C697        H703   1.087       .  S
C697        C698   1.363       .  D
C698        C773   1.447       .  S
C699        H704   1.087       .  S
C699        C700   1.363       .  D
C700        C789   1.446       .  S
C705        C706   1.529       .  S
C705        C711   1.538       .  S
C705        C709   1.527       .  S
C705        C797   1.462       .  S
C706        H713   1.087       .  S
C706        C707   1.363       .  D
C707        C708   1.526       .  S
C707        C828   1.427       .  S
C708        C712   1.530       .  S
C708        C710   1.533       .  S
C708        H714   1.112       .  S
C709        H715   1.088       .  S
C709        C710   1.358       .  D
C710        C782   1.426       .  S
C711        H716   1.086       .  S
C711        C712   1.370       .  D
C712        C767   1.439       .  S
C717        C718   1.539       .  S
C717        C723   1.535       .  S
C717        C721   1.537       .  S
C717        C809   1.483       .  S
C718        H725   1.086       .  S
C718        C719   1.370       .  D
C719        C720   1.536       .  S
C719        C775   1.450       .  S
C720        C724   1.540       .  S
C720        C722   1.540       .  S
C720        H726   1.112       .  S
C721        H727   1.087       .  S
C721        C722   1.367       .  D
C722        C779   1.448       .  S
C723        H728   1.087       .  S
C723        C724   1.363       .  D
C724        C818   1.447       .  S
C729        C730   1.523       .  S
C729        C735   1.531       .  S
C729        C733   1.535       .  S
C729        C820   1.467       .  S
C730        H737   1.088       .  S
C730        C731   1.357       .  D
C731        C732   1.548       .  S
C731        C784   1.443       .  S
C732        C736   1.558       .  S
C732        C734   1.542       .  S
C732        H738   1.111       .  S
C733        H739   1.087       .  S
C733        C734   1.368       .  D
C734        C771   1.448       .  S
C735        H740   1.087       .  S
C735        C736   1.365       .  D
C736        C799   1.462       .  S
C741        C742   1.532       .  S
C741        C747   1.530       .  S
C741        C745   1.538       .  S
C741        C788   1.475       .  S
C742        H749   1.087       .  S
C742        C743   1.363       .  D
C743        C744   1.542       .  S
C743        C816   1.446       .  S
C744        C748   1.542       .  S
C744        C746   1.540       .  S
C744        H750   1.111       .  S
C745        H751   1.087       .  S
C745        C746   1.368       .  D
C746        C807   1.447       .  S
C747        H752   1.087       .  S
C747        C748   1.364       .  D
C748        C765   1.448       .  S
C753        C754   1.538       .  S
C753        C759   1.532       .  S
C753        C757   1.525       .  S
C753        C770   1.464       .  S
C754        H761   1.086       .  S
C754        C755   1.371       .  D
C755        C756   1.533       .  S
C755        C805   1.440       .  S
C756        C760   1.526       .  S
C756        C758   1.532       .  S
C756        H762   1.112       .  S
C757        H763   1.088       .  S
C757        C758   1.356       .  D
C758        C813   1.427       .  S
C759        H764   1.087       .  S
C759        C760   1.364       .  D
C760        C786   1.429       .  S
C765        C766   1.210       .  T
C767        C768   1.204       .  T
C769        C770   1.204       .  T
C771        C772   1.210       .  T
C773        C774   1.209       .  T
C775        C776   1.210       .  T
C777        C778   1.214       .  T
C779        C780   1.210       .  T
C781        C782   1.197       .  T
C783        C784   1.207       .  T
C785        C786   1.198       .  T
C787        C788   1.210       .  T
C789        C790   1.209       .  T
C791        C792   1.209       .  T
C793        C794   1.214       .  T
C795        C796   1.209       .  T
C797        C798   1.203       .  T
C799        C800   1.219       .  T
C801        C802   1.206       .  T
C803        C804   1.209       .  T
C805        C806   1.205       .  T
C807        C808   1.209       .  T
C809        C810   1.214       .  T
C811        C812   1.207       .  T
C813        C814   1.197       .  T
C815        C816   1.208       .  T
C817        C818   1.209       .  T
C819        C820   1.206       .  T
C821        C822   1.209       .  T
C823        C824   1.210       .  T
C825        C826   1.210       .  T
C827        C828   1.196       .  T
O829        C837   1.267       .  A
O829       Co849   2.005       .  S
O830        C838   1.245       .  A
O830       Co850   1.974       .  S
O831        C839   1.262       .  A
O831       Co851   1.974       .  S
O832        C840   1.252       .  A
O832       Co852   1.999       .  S
O833        C839   1.268       .  A
O833       Co850   2.012       .  S
O834        C840   1.244       .  A
O834       Co849   1.971       .  S
O835        C838   1.251       .  A
O835       Co852   2.000       .  S
O836        C837   1.259       .  A
O836       Co851   1.956       .  S
C837       C1103   1.418       .  S
C838       C1098   1.441       .  S
C839       C1095   1.434       .  S
C840       C1093   1.440       .  S
O841        C854   1.269       .  A
O841       Co849   1.905       .  S
O842        C855   1.258       .  A
O842       Co850   1.995       .  S
O843        C856   1.264       .  A
O843       Co851   2.008       .  S
O844        C857   1.292       .  A
O844       Co852   2.054       .  S
O845        C857   1.271       .  A
O845       Co850   1.894       .  S
O846        C856   1.261       .  A
O846       Co849   1.989       .  S
O847        C854   1.295       .  A
O847       Co852   2.077       .  S
O848        C855   1.263       .  A
O848       Co851   2.010       .  S
Co849       O853   1.944       .  S
Co850       O853   1.932       .  S
Co851       O853   2.089       .  S
Co852       O853   2.248       .  S
C854       C1099   1.442       .  S
C855       C1101   1.440       .  S
C856       C1091   1.439       .  S
C857       C1090   1.419       .  S
O858        C866   1.258       .  A
O859        C867   1.270       .  A
O860        C868   1.291       .  A
O861        C869   1.275       .  A
O861      Co1709   2.036       .  S
O862        C868   1.270       .  A
O863        C869   1.256       .  A
O864        C867   1.277       .  A
O865        C866   1.263       .  A
O865      Co1708   2.019       .  S
C866       C1086   1.449       .  S
C867       C1076   1.457       .  S
C868       C1074   1.428       .  S
C869       C1078   1.433       .  S
O870        C883   1.272       .  A
O870       Co878   2.032   1_556  S
O871        C884   1.296       .  A
O871       Co879   2.114   1_556  S
O872        C885   1.268       .  A
O872      Co1984   1.972       .  S
O873        C886   1.251       .  A
O873       Co881   1.963       .  S
O874        C886   1.265       .  A
O874       Co879   2.026   1_556  S
O875        C885   1.275       .  A
O875       Co878   2.021   1_556  S
O876        C883   1.253       .  A
O876      Co1985   1.950       .  S
O877        C884   1.263       .  A
O877       Co880   1.894       .  S
Co878      O1986   2.039   1_554  S
Co879       O882   2.019   1_454  S
Co880      O1693   2.019   1_456  S
Co880      O1976   1.972   1_455  S
Co880       O882   2.000   1_455  S
Co881      O1689   2.036   1_456  S
Co881      O1980   1.950   1_455  S
Co881       O882   2.031   1_455  S
O882      Co1982   2.039   1_556  S
C883       C1082   1.432       .  S
C884       C1084   1.441       .  S
C885       C1088   1.435       .  S
C886       C1080   1.439       .  S
C887        C888   1.533       .  S
C887        C893   1.529       .  S
C887        C891   1.535       .  S
C887       C1087   1.469       .  S
C888        H895   1.087       .  S
C888        C889   1.365       .  D
C889        C890   1.543       .  S
C889       C1100   1.449       .  S
C890        C894   1.551       .  S
C890        C892   1.544       .  S
C890        H896   1.111       .  S
C891        H897   1.087       .  S
C891        C892   1.364       .  D
C892       C1071   1.448       .  S
C893        H898   1.087       .  S
C893        C894   1.361       .  D
C894       C1069   1.454       .  S
O899        C907   1.262       .  A
O899       Co919   1.962       .  S
O900        C908   1.247       .  A
O901        C909   1.271       .  A
O902        C910   1.287       .  A
O902       Co922   2.081       .  S
O903        C909   1.256       .  A
O903       Co920   1.958       .  S
O904        C910   1.264       .  A
O905        C908   1.266       .  A
O906        C907   1.280       .  A
O906       Co921   2.042       .  S
C907       C1063   1.440       .  S
C908       C1059   1.435       .  S
C909       C1068   1.440       .  S
C910       C1057   1.420       .  S
O911        C924   1.292       .  A
O912        C925   1.269       .  A
O912       Co920   2.014       .  S
O913        C926   1.253       .  A
O913       Co921   1.974       .  S
O914        C927   1.262       .  A
O915        C927   1.280       .  A
O916        C926   1.262       .  A
O916       Co919   2.014       .  S
O917        C924   1.266       .  A
O917       Co922   1.910       .  S
O918        C925   1.256       .  A
Co919       O923   2.010       .  S
Co921       O923   2.032       .  S
C924       C1056   1.442       .  S
C925       C1061   1.420       .  S
C926       C1072   1.440       .  S
C927       C1066   1.440       .  S
C928        C929   1.531       .  S
C928        C934   1.538       .  S
C928        C932   1.539       .  S
C928       C1054   1.482       .  S
C929        H936   1.087       .  S
C929        C930   1.361       .  D
C930        C931   1.543       .  S
C930       C1067   1.447       .  S
C931        C935   1.536       .  S
C931        C933   1.537       .  S
C931        H937   1.111       .  S
C932        H938   1.086       .  S
C932        C933   1.370       .  D
C933       C1102   1.449       .  S
C934        H939   1.086       .  S
C934        C935   1.370       .  D
C935       C1079   1.448       .  S
O940        C948   1.278       .  A
O940      Co2064   2.037       .  S
O941        C949   1.265       .  A
O941       Co961   2.021   1_455  S
O942        C950   1.269       .  A
O943        C951   1.259       .  A
O943       Co963   1.962       .  S
O944        C950   1.289       .  A
O944      Co2065   2.084       .  S
O945        C951   1.273       .  A
O945       Co960   2.033   1_455  S
O946        C949   1.259       .  A
O947        C948   1.267       .  A
O947       Co962   1.975       .  S
C948       C1070   1.448       .  S
C949       C1053   1.448       .  S
C950       C1045   1.432       .  S
C951       C1042   1.441       .  S
O952        C965   1.252       .  A
O952       Co960   1.946   1_455  S
O953        C966   1.265       .  A
O953      Co2065   1.902       .  S
O954        C967   1.265       .  A
O954       Co962   2.030       .  S
O955        C968   1.277       .  A
O956        C968   1.265       .  A
O956       Co961   1.971   1_455  S
O957        C967   1.250       .  A
O957      Co2064   1.962       .  S
O958        C965   1.272       .  A
O958       Co963   2.030       .  S
O959        C966   1.292       .  A
Co960      O2044   2.037       .  S
Co960      O2061   1.962       .  S
Co960       O964   2.030   1_655  S
Co961      O2048   2.084       .  S
Co961      O2057   1.902       .  S
Co962      O2068   2.026       .  S
Co963       O964   2.044       .  S
O964      Co2066   2.026   1_455  S
C965       C1044   1.431       .  S
C966       C1050   1.441       .  S
C967       C1052   1.441       .  S
C968       C1048   1.441       .  S
C969        C970   1.537       .  S
C969        C975   1.529       .  S
C969        C973   1.531       .  S
C969       C1097   1.474       .  S
C970        H977   1.086       .  S
C970        C971   1.369       .  D
C971        C972   1.535       .  S
C971       C1077   1.443       .  S
C972        C976   1.544       .  S
C972        C974   1.544       .  S
C972        H978   1.111       .  S
C973        H979   1.087       .  S
C973        C974   1.363       .  D
C974       C1049   1.447       .  S
C975        H980   1.087       .  S
C975        C976   1.363       .  D
C976       C1065   1.446       .  S
C981        C982   1.529       .  S
C981        C987   1.538       .  S
C981        C985   1.527       .  S
C981       C1073   1.462       .  S
C982        H989   1.087       .  S
C982        C983   1.363       .  D
C983        C984   1.526       .  S
C983       C1104   1.427       .  S
C984        C988   1.530       .  S
C984        C986   1.533       .  S
C984        H990   1.112       .  S
C985        H991   1.088       .  S
C985        C986   1.358       .  D
C986       C1058   1.426       .  S
C987        H992   1.086       .  S
C987        C988   1.370       .  D
C988       C1043   1.439       .  S
C993        C994   1.539       .  S
C993        C999   1.535       .  S
C993        C997   1.537       .  S
C993       C1085   1.483       .  S
C994       H1001   1.086       .  S
C994        C995   1.370       .  D
C995        C996   1.536       .  S
C995       C1051   1.450       .  S
C996       C1000   1.540       .  S
C996        C998   1.540       .  S
C996       H1002   1.112       .  S
C997       H1003   1.087       .  S
C997        C998   1.367       .  D
C998       C1055   1.448       .  S
C999       H1004   1.087       .  S
C999       C1000   1.364       .  D
C1000      C1094   1.447       .  S
C1005      C1006   1.523       .  S
C1005      C1011   1.531       .  S
C1005      C1009   1.535       .  S
C1005      C1096   1.467       .  S
C1006      H1013   1.088       .  S
C1006      C1007   1.357       .  D
C1007      C1008   1.548       .  S
C1007      C1060   1.443       .  S
C1008      C1012   1.558       .  S
C1008      C1010   1.542       .  S
C1008      H1014   1.111       .  S
C1009      H1015   1.087       .  S
C1009      C1010   1.368       .  D
C1010      C1047   1.448       .  S
C1011      H1016   1.087       .  S
C1011      C1012   1.365       .  D
C1012      C1075   1.462       .  S
C1017      C1018   1.532       .  S
C1017      C1023   1.530       .  S
C1017      C1021   1.538       .  S
C1017      C1064   1.475       .  S
C1018      H1025   1.087       .  S
C1018      C1019   1.363       .  D
C1019      C1020   1.542       .  S
C1019      C1092   1.446       .  S
C1020      C1024   1.542       .  S
C1020      C1022   1.540       .  S
C1020      H1026   1.111       .  S
C1021      H1027   1.087       .  S
C1021      C1022   1.368       .  D
C1022      C1083   1.447       .  S
C1023      H1028   1.087       .  S
C1023      C1024   1.364       .  D
C1024      C1041   1.448       .  S
C1029      C1030   1.538       .  S
C1029      C1035   1.532       .  S
C1029      C1033   1.525       .  S
C1029      C1046   1.464       .  S
C1030      H1037   1.086       .  S
C1030      C1031   1.371       .  D
C1031      C1032   1.533       .  S
C1031      C1081   1.440       .  S
C1032      C1036   1.526       .  S
C1032      C1034   1.532       .  S
C1032      H1038   1.112       .  S
C1033      H1039   1.088       .  S
C1033      C1034   1.356       .  D
C1034      C1089   1.427       .  S
C1035      H1040   1.087       .  S
C1035      C1036   1.364       .  D
C1036      C1062   1.429       .  S
C1041      C1042   1.210       .  T
C1043      C1044   1.204       .  T
C1045      C1046   1.204       .  T
C1047      C1048   1.210       .  T
C1049      C1050   1.209       .  T
C1051      C1052   1.210       .  T
C1053      C1054   1.214       .  T
C1055      C1056   1.210       .  T
C1057      C1058   1.197       .  T
C1059      C1060   1.207       .  T
C1061      C1062   1.198       .  T
C1063      C1064   1.210       .  T
C1065      C1066   1.209       .  T
C1067      C1068   1.209       .  T
C1069      C1070   1.214       .  T
C1071      C1072   1.209       .  T
C1073      C1074   1.203       .  T
C1075      C1076   1.219       .  T
C1077      C1078   1.206       .  T
C1079      C1080   1.209       .  T
C1081      C1082   1.205       .  T
C1083      C1084   1.209       .  T
C1085      C1086   1.214       .  T
C1087      C1088   1.207       .  T
C1089      C1090   1.197       .  T
C1091      C1092   1.208       .  T
C1093      C1094   1.209       .  T
C1095      C1096   1.206       .  T
C1097      C1098   1.210       .  T
C1099      C1100   1.210       .  T
C1101      C1102   1.210       .  T
C1103      C1104   1.196       .  T
O1105      C1113   1.267       .  A
O1105     Co1125   2.005       .  S
O1106      C1114   1.245       .  A
O1106     Co1126   1.974       .  S
O1107      C1115   1.262       .  A
O1107     Co1127   1.974       .  S
O1108      C1116   1.252       .  A
O1108     Co1128   1.999       .  S
O1109      C1115   1.268       .  A
O1109     Co1126   2.012       .  S
O1110      C1116   1.244       .  A
O1110     Co1125   1.971       .  S
O1111      C1114   1.251       .  A
O1111     Co1128   2.000       .  S
O1112      C1113   1.259       .  A
O1112     Co1127   1.956       .  S
C1113      C1379   1.418       .  S
C1114      C1374   1.441       .  S
C1115      C1371   1.434       .  S
C1116      C1369   1.440       .  S
O1117      C1130   1.269       .  A
O1117     Co1125   1.905       .  S
O1118      C1131   1.258       .  A
O1118     Co1126   1.995       .  S
O1119      C1132   1.264       .  A
O1119     Co1127   2.008       .  S
O1120      C1133   1.292       .  A
O1120     Co1128   2.054       .  S
O1121      C1133   1.271       .  A
O1121     Co1126   1.894       .  S
O1122      C1132   1.261       .  A
O1122     Co1125   1.989       .  S
O1123      C1130   1.295       .  A
O1123     Co1128   2.077       .  S
O1124      C1131   1.263       .  A
O1124     Co1127   2.010       .  S
Co1125     O1129   1.944       .  S
Co1126     O1129   1.932       .  S
Co1127     O1129   2.089       .  S
Co1128     O1129   2.248       .  S
C1130      C1375   1.442       .  S
C1131      C1377   1.440       .  S
C1132      C1367   1.439       .  S
C1133      C1366   1.419       .  S
O1134      C1142   1.258       .  A
O1134     Co1430   1.983       .  S
O1135      C1143   1.270       .  A
O1135     Co1431   1.985       .  S
O1136      C1144   1.291       .  A
O1136     Co1432   2.088   1_554  S
O1137      C1145   1.275       .  A
O1138      C1144   1.270       .  A
O1138     Co1431   1.894       .  S
O1139      C1145   1.256       .  A
O1139     Co1430   1.949       .  S
O1140      C1143   1.277       .  A
O1140     Co1433   2.039   1_554  S
O1141      C1142   1.263       .  A
C1142      C1362   1.449       .  S
C1143      C1352   1.457       .  S
C1144      C1350   1.428       .  S
C1145      C1354   1.433       .  S
O1146      C1159   1.272       .  A
O1146     Co1154   2.032       .  S
O1147      C1160   1.296       .  A
O1147     Co1155   2.114       .  S
O1148      C1161   1.268       .  A
O1149      C1162   1.251       .  A
O1149     Co1157   1.963       .  S
O1150      C1162   1.265       .  A
O1150     Co1155   2.026       .  S
O1151      C1161   1.275       .  A
O1151     Co1154   2.021       .  S
O1152      C1159   1.253       .  A
O1153      C1160   1.263       .  A
O1153     Co1156   1.894       .  S
Co1154     O1410   1.983       .  S
Co1154     O1415   1.949       .  S
Co1155     O1411   1.985       .  S
Co1155     O1414   1.894       .  S
Co1155     O1158   2.019       .  S
Co1156     O1412   2.088       .  S
Co1156     O1158   2.000       .  S
Co1157     O1416   2.039       .  S
Co1157     O1158   2.031       .  S
C1159      C1358   1.432       .  S
C1160      C1360   1.441       .  S
C1161      C1364   1.435       .  S
C1162      C1356   1.439       .  S
C1163      C1164   1.533       .  S
C1163      C1169   1.529       .  S
C1163      C1167   1.535       .  S
C1163      C1363   1.469       .  S
C1164      H1171   1.087       .  S
C1164      C1165   1.365       .  D
C1165      C1166   1.543       .  S
C1165      C1376   1.449       .  S
C1166      C1170   1.551       .  S
C1166      C1168   1.544       .  S
C1166      H1172   1.111       .  S
C1167      H1173   1.087       .  S
C1167      C1168   1.364       .  D
C1168      C1347   1.448       .  S
C1169      H1174   1.087       .  S
C1169      C1170   1.361       .  D
C1170      C1345   1.454       .  S
O1175      C1183   1.262       .  A
O1175     Co1195   1.962       .  S
O1176      C1184   1.247       .  A
O1176     Co1472   1.958   1_554  S
O1177      C1185   1.271       .  A
O1177     Co1749   2.030       .  S
O1178      C1186   1.287       .  A
O1178     Co1198   2.081       .  S
O1179      C1185   1.256       .  A
O1179     Co1196   1.958       .  S
O1180      C1186   1.264       .  A
O1180     Co1471   1.896   1_554  S
O1181      C1184   1.266       .  A
O1181     Co1750   2.028       .  S
O1182      C1183   1.280       .  A
O1182     Co1197   2.042   1_545  S
C1183      C1339   1.440       .  S
C1184      C1335   1.435       .  S
C1185      C1344   1.440       .  S
C1186      C1333   1.420       .  S
O1187      C1200   1.292       .  A
O1187     Co1471   2.096   1_554  S
O1188      C1201   1.269       .  A
O1188     Co1196   2.014       .  S
O1189      C1202   1.253       .  A
O1189     Co1197   1.974   1_545  S
O1190      C1203   1.262       .  A
O1190     Co1750   1.961       .  S
O1191      C1203   1.280       .  A
O1191     Co1472   2.042   1_554  S
O1192      C1202   1.262       .  A
O1192     Co1195   2.014       .  S
O1193      C1200   1.266       .  A
O1193     Co1198   1.910       .  S
O1194      C1201   1.256       .  A
O1194     Co1749   1.949       .  S
Co1195     O1456   1.896       .  S
Co1195     O1463   2.096       .  S
Co1195     O1199   2.010   1_545  S
Co1196     O1452   1.958       .  S
Co1196     O1467   2.042       .  S
Co1196     O1751   2.031       .  S
Co1197     O1729   2.030       .  S
Co1197     O1746   1.949       .  S
Co1197     O1199   2.032       .  S
Co1198     O1733   2.028   1_545  S
Co1198     O1742   1.961   1_545  S
Co1198     O1475   2.018   1_544  S
O1199     Co1748   2.031       .  S
O1199     Co1474   2.018   1_565  S
C1200      C1332   1.442       .  S
C1201      C1337   1.420       .  S
C1202      C1348   1.440       .  S
C1203      C1342   1.440       .  S
C1204      C1205   1.532       .  S
C1204      C1210   1.538       .  S
C1204      C1208   1.539       .  S
C1204      C1330   1.482       .  S
C1205      H1212   1.087       .  S
C1205      C1206   1.361       .  D
C1206      C1207   1.543       .  S
C1206      C1343   1.447       .  S
C1207      C1211   1.536       .  S
C1207      C1209   1.537       .  S
C1207      H1213   1.111       .  S
C1208      H1214   1.086       .  S
C1208      C1209   1.370       .  D
C1209      C1378   1.449       .  S
C1210      H1215   1.086       .  S
C1210      C1211   1.370       .  D
C1211      C1355   1.448       .  S
O1216      C1224   1.278       .  A
O1217      C1225   1.265       .  A
O1217     Co1237   2.021       .  S
O1218      C1226   1.269       .  A
O1218     Co1790   1.903       .  S
O1219      C1227   1.259       .  A
O1219     Co1239   1.962       .  S
O1220      C1226   1.289       .  A
O1221      C1227   1.273       .  A
O1221     Co1236   2.033       .  S
O1222      C1225   1.259       .  A
O1222     Co1791   1.983       .  S
O1223      C1224   1.267       .  A
O1223     Co1238   1.975       .  S
C1224      C1346   1.448       .  S
C1225      C1329   1.448       .  S
C1226      C1321   1.432       .  S
C1227      C1318   1.441       .  S
O1228      C1241   1.252       .  A
O1228     Co1236   1.946       .  S
O1229      C1242   1.265       .  A
O1230      C1243   1.265       .  A
O1230     Co1238   2.030       .  S
O1231      C1244   1.277       .  A
O1231     Co1791   2.030       .  S
O1232      C1244   1.265       .  A
O1232     Co1237   1.971       .  S
O1233      C1243   1.250       .  A
O1234      C1241   1.272       .  A
O1234     Co1239   2.030       .  S
O1235      C1242   1.292       .  A
O1235     Co1790   2.102       .  S
Co1236     O1240   2.030       .  S
Co1237     O1792   2.006       .  S
Co1238     O1770   1.903   1_545  S
Co1238     O1787   2.102   1_545  S
Co1239     O1774   1.983   1_545  S
Co1239     O1783   2.030   1_545  S
Co1239     O1240   2.044       .  S
O1240     Co1789   2.006   1_545  S
C1241      C1320   1.431       .  S
C1242      C1326   1.441       .  S
C1243      C1328   1.441       .  S
C1244      C1324   1.441       .  S
C1245      C1246   1.537       .  S
C1245      C1251   1.529       .  S
C1245      C1249   1.531       .  S
C1245      C1373   1.474       .  S
C1246      H1253   1.086       .  S
C1246      C1247   1.369       .  D
C1247      C1248   1.535       .  S
C1247      C1353   1.443       .  S
C1248      C1252   1.544       .  S
C1248      C1250   1.544       .  S
C1248      H1254   1.111       .  S
C1249      H1255   1.087       .  S
C1249      C1250   1.363       .  D
C1250      C1325   1.447       .  S
C1251      H1256   1.087       .  S
C1251      C1252   1.363       .  D
C1252      C1341   1.446       .  S
C1257      C1258   1.529       .  S
C1257      C1263   1.538       .  S
C1257      C1261   1.527       .  S
C1257      C1349   1.462       .  S
C1258      H1265   1.087       .  S
C1258      C1259   1.363       .  D
C1259      C1260   1.526       .  S
C1259      C1380   1.427       .  S
C1260      C1264   1.530       .  S
C1260      C1262   1.533       .  S
C1260      H1266   1.112       .  S
C1261      H1267   1.088       .  S
C1261      C1262   1.358       .  D
C1262      C1334   1.426       .  S
C1263      H1268   1.086       .  S
C1263      C1264   1.370       .  D
C1264      C1319   1.439       .  S
C1269      C1270   1.539       .  S
C1269      C1275   1.535       .  S
C1269      C1273   1.537       .  S
C1269      C1361   1.483       .  S
C1270      H1277   1.086       .  S
C1270      C1271   1.370       .  D
C1271      C1272   1.536       .  S
C1271      C1327   1.450       .  S
C1272      C1276   1.540       .  S
C1272      C1274   1.540       .  S
C1272      H1278   1.112       .  S
C1273      H1279   1.087       .  S
C1273      C1274   1.367       .  D
C1274      C1331   1.448       .  S
C1275      H1280   1.087       .  S
C1275      C1276   1.363       .  D
C1276      C1370   1.447       .  S
C1281      C1282   1.523       .  S
C1281      C1287   1.531       .  S
C1281      C1285   1.535       .  S
C1281      C1372   1.467       .  S
C1282      H1289   1.088       .  S
C1282      C1283   1.357       .  D
C1283      C1284   1.548       .  S
C1283      C1336   1.443       .  S
C1284      C1288   1.558       .  S
C1284      C1286   1.542       .  S
C1284      H1290   1.111       .  S
C1285      H1291   1.087       .  S
C1285      C1286   1.368       .  D
C1286      C1323   1.448       .  S
C1287      H1292   1.087       .  S
C1287      C1288   1.365       .  D
C1288      C1351   1.462       .  S
C1293      C1294   1.532       .  S
C1293      C1299   1.530       .  S
C1293      C1297   1.538       .  S
C1293      C1340   1.475       .  S
C1294      H1301   1.087       .  S
C1294      C1295   1.363       .  D
C1295      C1296   1.542       .  S
C1295      C1368   1.446       .  S
C1296      C1300   1.542       .  S
C1296      C1298   1.540       .  S
C1296      H1302   1.111       .  S
C1297      H1303   1.087       .  S
C1297      C1298   1.368       .  D
C1298      C1359   1.447       .  S
C1299      H1304   1.087       .  S
C1299      C1300   1.364       .  D
C1300      C1317   1.448       .  S
C1305      C1306   1.538       .  S
C1305      C1311   1.532       .  S
C1305      C1309   1.525       .  S
C1305      C1322   1.464       .  S
C1306      H1313   1.086       .  S
C1306      C1307   1.371       .  D
C1307      C1308   1.533       .  S
C1307      C1357   1.440       .  S
C1308      C1312   1.526       .  S
C1308      C1310   1.532       .  S
C1308      H1314   1.112       .  S
C1309      H1315   1.088       .  S
C1309      C1310   1.356       .  D
C1310      C1365   1.427       .  S
C1311      H1316   1.087       .  S
C1311      C1312   1.364       .  D
C1312      C1338   1.429       .  S
C1317      C1318   1.210       .  T
C1319      C1320   1.204       .  T
C1321      C1322   1.204       .  T
C1323      C1324   1.210       .  T
C1325      C1326   1.209       .  T
C1327      C1328   1.210       .  T
C1329      C1330   1.214       .  T
C1331      C1332   1.210       .  T
C1333      C1334   1.197       .  T
C1335      C1336   1.207       .  T
C1337      C1338   1.198       .  T
C1339      C1340   1.210       .  T
C1341      C1342   1.209       .  T
C1343      C1344   1.209       .  T
C1345      C1346   1.214       .  T
C1347      C1348   1.209       .  T
C1349      C1350   1.203       .  T
C1351      C1352   1.219       .  T
C1353      C1354   1.206       .  T
C1355      C1356   1.209       .  T
C1357      C1358   1.205       .  T
C1359      C1360   1.209       .  T
C1361      C1362   1.214       .  T
C1363      C1364   1.207       .  T
C1365      C1366   1.197       .  T
C1367      C1368   1.208       .  T
C1369      C1370   1.209       .  T
C1371      C1372   1.206       .  T
C1373      C1374   1.209       .  T
C1375      C1376   1.210       .  T
C1377      C1378   1.210       .  T
C1379      C1380   1.196       .  T
O1381      C1389   1.267       .  A
O1381     Co1401   2.005       .  S
O1382      C1390   1.245       .  A
O1382     Co1402   1.974       .  S
O1383      C1391   1.262       .  A
O1383     Co1403   1.974       .  S
O1384      C1392   1.252       .  A
O1384     Co1404   1.999       .  S
O1385      C1391   1.268       .  A
O1385     Co1402   2.012       .  S
O1386      C1392   1.244       .  A
O1386     Co1401   1.971       .  S
O1387      C1390   1.251       .  A
O1387     Co1404   2.000       .  S
O1388      C1389   1.259       .  A
O1388     Co1403   1.956       .  S
C1389      C1655   1.418       .  S
C1390      C1650   1.441       .  S
C1391      C1647   1.434       .  S
C1392      C1645   1.440       .  S
O1393      C1406   1.269       .  A
O1393     Co1401   1.905       .  S
O1394      C1407   1.258       .  A
O1394     Co1402   1.995       .  S
O1395      C1408   1.264       .  A
O1395     Co1403   2.008       .  S
O1396      C1409   1.292       .  A
O1396     Co1404   2.054       .  S
O1397      C1409   1.271       .  A
O1397     Co1402   1.894       .  S
O1398      C1408   1.261       .  A
O1398     Co1401   1.989       .  S
O1399      C1406   1.295       .  A
O1399     Co1404   2.077       .  S
O1400      C1407   1.263       .  A
O1400     Co1403   2.010       .  S
Co1401     O1405   1.944       .  S
Co1402     O1405   1.932       .  S
Co1403     O1405   2.089       .  S
Co1404     O1405   2.248       .  S
C1406      C1651   1.442       .  S
C1407      C1653   1.440       .  S
C1408      C1643   1.439       .  S
C1409      C1642   1.419       .  S
O1410      C1418   1.258       .  A
O1411      C1419   1.270       .  A
O1412      C1420   1.291       .  A
O1413      C1421   1.275       .  A
O1414      C1420   1.270       .  A
O1415      C1421   1.256       .  A
O1416      C1419   1.277       .  A
O1417      C1418   1.263       .  A
C1418      C1638   1.449       .  S
C1419      C1628   1.457       .  S
C1420      C1626   1.428       .  S
C1421      C1630   1.433       .  S
O1422      C1435   1.272       .  A
O1422     Co1430   2.032   1_556  S
O1423      C1436   1.296       .  A
O1423     Co1431   2.114   1_556  S
O1424      C1437   1.268       .  A
O1425      C1438   1.251       .  A
O1425     Co1433   1.963       .  S
O1426      C1438   1.265       .  A
O1426     Co1431   2.026   1_556  S
O1427      C1437   1.275       .  A
O1427     Co1430   2.021   1_556  S
O1428      C1435   1.253       .  A
O1429      C1436   1.263       .  A
O1429     Co1432   1.894       .  S
Co1431     O1434   2.019   1_554  S
Co1432     O1434   2.000       .  S
Co1433     O1434   2.031       .  S
C1435      C1634   1.432       .  S
C1436      C1636   1.441       .  S
C1437      C1640   1.435       .  S
C1438      C1632   1.439       .  S
C1439      C1440   1.533       .  S
C1439      C1445   1.529       .  S
C1439      C1443   1.535       .  S
C1439      C1639   1.469       .  S
C1440      H1447   1.087       .  S
C1440      C1441   1.365       .  D
C1441      C1442   1.543       .  S
C1441      C1652   1.449       .  S
C1442      C1446   1.551       .  S
C1442      C1444   1.544       .  S
C1442      H1448   1.111       .  S
C1443      H1449   1.087       .  S
C1443      C1444   1.364       .  D
C1444      C1623   1.448       .  S
C1445      H1450   1.087       .  S
C1445      C1446   1.361       .  D
C1446      C1621   1.454       .  S
O1451      C1459   1.262       .  A
O1451     Co1471   1.962       .  S
O1452      C1460   1.247       .  A
O1453      C1461   1.271       .  A
O1453     Co2025   2.030       .  S
O1454      C1462   1.287       .  A
O1454     Co1474   2.081       .  S
O1455      C1461   1.256       .  A
O1455     Co1472   1.958       .  S
O1456      C1462   1.264       .  A
O1457      C1460   1.266       .  A
O1457     Co2026   2.028       .  S
O1458      C1459   1.280       .  A
O1458     Co1473   2.042   1_545  S
C1459      C1615   1.440       .  S
C1460      C1611   1.435       .  S
C1461      C1620   1.440       .  S
C1462      C1609   1.420       .  S
O1463      C1476   1.292       .  A
O1464      C1477   1.269       .  A
O1464     Co1472   2.014       .  S
O1465      C1478   1.253       .  A
O1465     Co1473   1.974   1_545  S
O1466      C1479   1.262       .  A
O1466     Co2026   1.961       .  S
O1467      C1479   1.280       .  A
O1468      C1478   1.262       .  A
O1468     Co1471   2.014       .  S
O1469      C1476   1.266       .  A
O1469     Co1474   1.910       .  S
O1470      C1477   1.256       .  A
O1470     Co2025   1.949       .  S
Co1471     O1475   2.010   1_545  S
Co1472     O2027   2.031       .  S
Co1473     O2005   2.030       .  S
Co1473     O2022   1.949       .  S
Co1473     O1475   2.032       .  S
Co1474     O2009   2.028   1_545  S
Co1474     O2018   1.961   1_545  S
O1475     Co2024   2.031       .  S
C1476      C1608   1.442       .  S
C1477      C1613   1.420       .  S
C1478      C1624   1.440       .  S
C1479      C1618   1.440       .  S
C1480      C1481   1.531       .  S
C1480      C1486   1.538       .  S
C1480      C1484   1.539       .  S
C1480      C1606   1.482       .  S
C1481      H1488   1.087       .  S
C1481      C1482   1.361       .  D
C1482      C1483   1.543       .  S
C1482      C1619   1.447       .  S
C1483      C1487   1.536       .  S
C1483      C1485   1.537       .  S
C1483      H1489   1.111       .  S
C1484      H1490   1.086       .  S
C1484      C1485   1.370       .  D
C1485      C1654   1.449       .  S
C1486      H1491   1.086       .  S
C1486      C1487   1.370       .  D
C1487      C1631   1.448       .  S
O1492      C1500   1.278       .  A
O1493      C1501   1.265       .  A
O1493     Co1513   2.021       .  S
O1494      C1502   1.269       .  A
O1494     Co2066   1.902       .  S
O1495      C1503   1.259       .  A
O1495     Co1515   1.962       .  S
O1496      C1502   1.289       .  A
O1497      C1503   1.273       .  A
O1497     Co1512   2.033       .  S
O1498      C1501   1.259       .  A
O1498     Co2067   1.983       .  S
O1499      C1500   1.267       .  A
O1499     Co1514   1.975       .  S
C1500      C1622   1.448       .  S
C1501      C1605   1.448       .  S
C1502      C1597   1.432       .  S
C1503      C1594   1.441       .  S
O1504      C1517   1.252       .  A
O1504     Co1512   1.946       .  S
O1505      C1518   1.265       .  A
O1506      C1519   1.265       .  A
O1506     Co1514   2.030       .  S
O1507      C1520   1.277       .  A
O1507     Co2067   2.030       .  S
O1508      C1520   1.265       .  A
O1508     Co1513   1.971       .  S
O1509      C1519   1.250       .  A
O1510      C1517   1.272       .  A
O1510     Co1515   2.030       .  S
O1511      C1518   1.292       .  A
O1511     Co2066   2.102       .  S
Co1512     O1516   2.030       .  S
Co1513     O2068   2.006       .  S
Co1514     O2046   1.902   1_545  S
Co1514     O2063   2.102   1_545  S
Co1515     O2050   1.983   1_545  S
Co1515     O2059   2.030   1_545  S
Co1515     O1516   2.044       .  S
O1516     Co2065   2.006   1_545  S
C1517      C1596   1.431       .  S
C1518      C1602   1.441       .  S
C1519      C1604   1.441       .  S
C1520      C1600   1.441       .  S
C1521      C1522   1.537       .  S
C1521      C1527   1.529       .  S
C1521      C1525   1.531       .  S
C1521      C1649   1.474       .  S
C1522      H1529   1.086       .  S
C1522      C1523   1.369       .  D
C1523      C1524   1.535       .  S
C1523      C1629   1.443       .  S
C1524      C1528   1.544       .  S
C1524      C1526   1.544       .  S
C1524      H1530   1.111       .  S
C1525      H1531   1.087       .  S
C1525      C1526   1.363       .  D
C1526      C1601   1.447       .  S
C1527      H1532   1.087       .  S
C1527      C1528   1.363       .  D
C1528      C1617   1.446       .  S
C1533      C1534   1.529       .  S
C1533      C1539   1.538       .  S
C1533      C1537   1.527       .  S
C1533      C1625   1.462       .  S
C1534      H1541   1.087       .  S
C1534      C1535   1.363       .  D
C1535      C1536   1.526       .  S
C1535      C1656   1.427       .  S
C1536      C1540   1.530       .  S
C1536      C1538   1.533       .  S
C1536      H1542   1.112       .  S
C1537      H1543   1.088       .  S
C1537      C1538   1.358       .  D
C1538      C1610   1.426       .  S
C1539      H1544   1.086       .  S
C1539      C1540   1.370       .  D
C1540      C1595   1.439       .  S
C1545      C1546   1.539       .  S
C1545      C1551   1.535       .  S
C1545      C1549   1.537       .  S
C1545      C1637   1.483       .  S
C1546      H1553   1.086       .  S
C1546      C1547   1.370       .  D
C1547      C1548   1.536       .  S
C1547      C1603   1.450       .  S
C1548      C1552   1.540       .  S
C1548      C1550   1.540       .  S
C1548      H1554   1.112       .  S
C1549      H1555   1.087       .  S
C1549      C1550   1.367       .  D
C1550      C1607   1.448       .  S
C1551      H1556   1.087       .  S
C1551      C1552   1.364       .  D
C1552      C1646   1.447       .  S
C1557      C1558   1.523       .  S
C1557      C1563   1.531       .  S
C1557      C1561   1.535       .  S
C1557      C1648   1.467       .  S
C1558      H1565   1.088       .  S
C1558      C1559   1.357       .  D
C1559      C1560   1.548       .  S
C1559      C1612   1.443       .  S
C1560      C1564   1.558       .  S
C1560      C1562   1.542       .  S
C1560      H1566   1.111       .  S
C1561      H1567   1.087       .  S
C1561      C1562   1.368       .  D
C1562      C1599   1.448       .  S
C1563      H1568   1.087       .  S
C1563      C1564   1.365       .  D
C1564      C1627   1.462       .  S
C1569      C1570   1.532       .  S
C1569      C1575   1.530       .  S
C1569      C1573   1.538       .  S
C1569      C1616   1.475       .  S
C1570      H1577   1.087       .  S
C1570      C1571   1.363       .  D
C1571      C1572   1.542       .  S
C1571      C1644   1.446       .  S
C1572      C1576   1.542       .  S
C1572      C1574   1.540       .  S
C1572      H1578   1.111       .  S
C1573      H1579   1.087       .  S
C1573      C1574   1.368       .  D
C1574      C1635   1.447       .  S
C1575      H1580   1.087       .  S
C1575      C1576   1.364       .  D
C1576      C1593   1.448       .  S
C1581      C1582   1.538       .  S
C1581      C1587   1.532       .  S
C1581      C1585   1.525       .  S
C1581      C1598   1.464       .  S
C1582      H1589   1.086       .  S
C1582      C1583   1.371       .  D
C1583      C1584   1.533       .  S
C1583      C1633   1.440       .  S
C1584      C1588   1.526       .  S
C1584      C1586   1.532       .  S
C1584      H1590   1.112       .  S
C1585      H1591   1.088       .  S
C1585      C1586   1.356       .  D
C1586      C1641   1.427       .  S
C1587      H1592   1.087       .  S
C1587      C1588   1.364       .  D
C1588      C1614   1.429       .  S
C1593      C1594   1.210       .  T
C1595      C1596   1.204       .  T
C1597      C1598   1.204       .  T
C1599      C1600   1.210       .  T
C1601      C1602   1.209       .  T
C1603      C1604   1.210       .  T
C1605      C1606   1.214       .  T
C1607      C1608   1.210       .  T
C1609      C1610   1.197       .  T
C1611      C1612   1.207       .  T
C1613      C1614   1.198       .  T
C1615      C1616   1.210       .  T
C1617      C1618   1.209       .  T
C1619      C1620   1.209       .  T
C1621      C1622   1.214       .  T
C1623      C1624   1.209       .  T
C1625      C1626   1.203       .  T
C1627      C1628   1.219       .  T
C1629      C1630   1.206       .  T
C1631      C1632   1.209       .  T
C1633      C1634   1.205       .  T
C1635      C1636   1.209       .  T
C1637      C1638   1.214       .  T
C1639      C1640   1.207       .  T
C1641      C1642   1.197       .  T
C1643      C1644   1.208       .  T
C1645      C1646   1.209       .  T
C1647      C1648   1.206       .  T
C1649      C1650   1.210       .  T
C1651      C1652   1.210       .  T
C1653      C1654   1.210       .  T
C1655      C1656   1.196       .  T
O1657      C1665   1.267       .  A
O1657     Co1677   2.005       .  S
O1658      C1666   1.245       .  A
O1658     Co1678   1.974       .  S
O1659      C1667   1.262       .  A
O1659     Co1679   1.974       .  S
O1660      C1668   1.252       .  A
O1660     Co1680   1.999       .  S
O1661      C1667   1.268       .  A
O1661     Co1678   2.012       .  S
O1662      C1668   1.244       .  A
O1662     Co1677   1.971       .  S
O1663      C1666   1.251       .  A
O1663     Co1680   2.000       .  S
O1664      C1665   1.259       .  A
O1664     Co1679   1.956       .  S
C1665      C1931   1.418       .  S
C1666      C1926   1.441       .  S
C1667      C1923   1.434       .  S
C1668      C1921   1.440       .  S
O1669      C1682   1.269       .  A
O1669     Co1677   1.905       .  S
O1670      C1683   1.258       .  A
O1670     Co1678   1.995       .  S
O1671      C1684   1.264       .  A
O1671     Co1679   2.008       .  S
O1672      C1685   1.292       .  A
O1672     Co1680   2.054       .  S
O1673      C1685   1.271       .  A
O1673     Co1678   1.894       .  S
O1674      C1684   1.261       .  A
O1674     Co1677   1.989       .  S
O1675      C1682   1.295       .  A
O1675     Co1680   2.077       .  S
O1676      C1683   1.263       .  A
O1676     Co1679   2.010       .  S
Co1677     O1681   1.944       .  S
Co1678     O1681   1.932       .  S
Co1679     O1681   2.089       .  S
Co1680     O1681   2.248       .  S
C1682      C1927   1.442       .  S
C1683      C1929   1.440       .  S
C1684      C1919   1.439       .  S
C1685      C1918   1.419       .  S
O1686      C1694   1.258       .  A
O1686     Co1982   1.983       .  S
O1687      C1695   1.270       .  A
O1687     Co1983   1.985       .  S
O1688      C1696   1.291       .  A
O1688     Co1984   2.088   1_554  S
O1689      C1697   1.275       .  A
O1690      C1696   1.270       .  A
O1690     Co1983   1.894       .  S
O1691      C1697   1.256       .  A
O1691     Co1982   1.949       .  S
O1692      C1695   1.277       .  A
O1692     Co1985   2.039   1_554  S
O1693      C1694   1.263       .  A
C1694      C1914   1.449       .  S
C1695      C1904   1.457       .  S
C1696      C1902   1.428       .  S
C1697      C1906   1.433       .  S
O1698      C1711   1.272       .  A
O1698     Co1706   2.032       .  S
O1699      C1712   1.296       .  A
O1699     Co1707   2.114       .  S
O1700      C1713   1.268       .  A
O1701      C1714   1.251       .  A
O1701     Co1709   1.963       .  S
O1702      C1714   1.265       .  A
O1702     Co1707   2.026       .  S
O1703      C1713   1.275       .  A
O1703     Co1706   2.021       .  S
O1704      C1711   1.253       .  A
O1705      C1712   1.263       .  A
O1705     Co1708   1.894       .  S
Co1706     O1962   1.983       .  S
Co1706     O1967   1.949       .  S
Co1707     O1963   1.985       .  S
Co1707     O1966   1.894       .  S
Co1707     O1710   2.019       .  S
Co1708     O1964   2.088       .  S
Co1708     O1710   2.000       .  S
Co1709     O1968   2.039       .  S
Co1709     O1710   2.031       .  S
C1711      C1910   1.432       .  S
C1712      C1912   1.441       .  S
C1713      C1916   1.435       .  S
C1714      C1908   1.439       .  S
C1715      C1716   1.533       .  S
C1715      C1721   1.529       .  S
C1715      C1719   1.535       .  S
C1715      C1915   1.469       .  S
C1716      H1723   1.087       .  S
C1716      C1717   1.365       .  D
C1717      C1718   1.543       .  S
C1717      C1928   1.449       .  S
C1718      C1722   1.551       .  S
C1718      C1720   1.544       .  S
C1718      H1724   1.111       .  S
C1719      H1725   1.087       .  S
C1719      C1720   1.364       .  D
C1720      C1899   1.448       .  S
C1721      H1726   1.087       .  S
C1721      C1722   1.361       .  D
C1722      C1897   1.454       .  S
O1727      C1735   1.262       .  A
O1727     Co1747   1.962       .  S
O1728      C1736   1.247       .  A
O1728     Co2024   1.958   1_554  S
O1729      C1737   1.271       .  A
O1730      C1738   1.287       .  A
O1730     Co1750   2.081       .  S
O1731      C1737   1.256       .  A
O1731     Co1748   1.958       .  S
O1732      C1738   1.264       .  A
O1732     Co2023   1.896   1_554  S
O1733      C1736   1.266       .  A
O1734      C1735   1.280       .  A
O1734     Co1749   2.042       .  S
C1735      C1891   1.440       .  S
C1736      C1887   1.435       .  S
C1737      C1896   1.440       .  S
C1738      C1885   1.420       .  S
O1739      C1752   1.292       .  A
O1739     Co2023   2.096   1_554  S
O1740      C1753   1.269       .  A
O1740     Co1748   2.014       .  S
O1741      C1754   1.253       .  A
O1741     Co1749   1.974       .  S
O1742      C1755   1.262       .  A
O1743      C1755   1.280       .  A
O1743     Co2024   2.042   1_554  S
O1744      C1754   1.262       .  A
O1744     Co1747   2.014       .  S
O1745      C1752   1.266       .  A
O1745     Co1750   1.910       .  S
O1746      C1753   1.256       .  A
Co1747     O2008   1.896       .  S
Co1747     O2015   2.096       .  S
Co1747     O1751   2.010       .  S
Co1748     O2004   1.958       .  S
Co1748     O2019   2.042       .  S
Co1749     O1751   2.032       .  S
Co1750     O2027   2.018   1_554  S
O1751     Co2026   2.018       .  S
C1752      C1884   1.442       .  S
C1753      C1889   1.420       .  S
C1754      C1900   1.440       .  S
C1755      C1894   1.440       .  S
C1756      C1757   1.532       .  S
C1756      C1762   1.538       .  S
C1756      C1760   1.539       .  S
C1756      C1882   1.482       .  S
C1757      H1764   1.087       .  S
C1757      C1758   1.361       .  D
C1758      C1759   1.543       .  S
C1758      C1895   1.447       .  S
C1759      C1763   1.536       .  S
C1759      C1761   1.537       .  S
C1759      H1765   1.111       .  S
C1760      H1766   1.086       .  S
C1760      C1761   1.370       .  D
C1761      C1930   1.449       .  S
C1762      H1767   1.086       .  S
C1762      C1763   1.370       .  D
C1763      C1907   1.448       .  S
O1768      C1776   1.278       .  A
O1769      C1777   1.265       .  A
O1769     Co1789   2.021       .  S
O1770      C1778   1.269       .  A
O1771      C1779   1.259       .  A
O1771     Co1791   1.962       .  S
O1772      C1778   1.289       .  A
O1773      C1779   1.273       .  A
O1773     Co1788   2.033       .  S
O1774      C1777   1.259       .  A
O1775      C1776   1.267       .  A
O1775     Co1790   1.975       .  S
C1776      C1898   1.448       .  S
C1777      C1881   1.448       .  S
C1778      C1873   1.432       .  S
C1779      C1870   1.441       .  S
O1780      C1793   1.252       .  A
O1780     Co1788   1.946       .  S
O1781      C1794   1.265       .  A
O1782      C1795   1.265       .  A
O1782     Co1790   2.030       .  S
O1783      C1796   1.277       .  A
O1784      C1796   1.265       .  A
O1784     Co1789   1.971       .  S
O1785      C1795   1.250       .  A
O1786      C1793   1.272       .  A
O1786     Co1791   2.030       .  S
O1787      C1794   1.292       .  A
Co1788     O1792   2.030       .  S
Co1791     O1792   2.044       .  S
C1793      C1872   1.431       .  S
C1794      C1878   1.441       .  S
C1795      C1880   1.441       .  S
C1796      C1876   1.441       .  S
C1797      C1798   1.537       .  S
C1797      C1803   1.529       .  S
C1797      C1801   1.531       .  S
C1797      C1925   1.474       .  S
C1798      H1805   1.086       .  S
C1798      C1799   1.369       .  D
C1799      C1800   1.535       .  S
C1799      C1905   1.443       .  S
C1800      C1804   1.544       .  S
C1800      C1802   1.544       .  S
C1800      H1806   1.111       .  S
C1801      H1807   1.087       .  S
C1801      C1802   1.363       .  D
C1802      C1877   1.447       .  S
C1803      H1808   1.087       .  S
C1803      C1804   1.363       .  D
C1804      C1893   1.446       .  S
C1809      C1810   1.529       .  S
C1809      C1815   1.538       .  S
C1809      C1813   1.527       .  S
C1809      C1901   1.462       .  S
C1810      H1817   1.087       .  S
C1810      C1811   1.363       .  D
C1811      C1812   1.526       .  S
C1811      C1932   1.427       .  S
C1812      C1816   1.530       .  S
C1812      C1814   1.533       .  S
C1812      H1818   1.112       .  S
C1813      H1819   1.088       .  S
C1813      C1814   1.358       .  D
C1814      C1886   1.426       .  S
C1815      H1820   1.086       .  S
C1815      C1816   1.370       .  D
C1816      C1871   1.439       .  S
C1821      C1822   1.539       .  S
C1821      C1827   1.535       .  S
C1821      C1825   1.537       .  S
C1821      C1913   1.483       .  S
C1822      H1829   1.086       .  S
C1822      C1823   1.370       .  D
C1823      C1824   1.536       .  S
C1823      C1879   1.450       .  S
C1824      C1828   1.540       .  S
C1824      C1826   1.540       .  S
C1824      H1830   1.112       .  S
C1825      H1831   1.087       .  S
C1825      C1826   1.367       .  D
C1826      C1883   1.448       .  S
C1827      H1832   1.087       .  S
C1827      C1828   1.363       .  D
C1828      C1922   1.447       .  S
C1833      C1834   1.523       .  S
C1833      C1839   1.531       .  S
C1833      C1837   1.535       .  S
C1833      C1924   1.467       .  S
C1834      H1841   1.088       .  S
C1834      C1835   1.357       .  D
C1835      C1836   1.548       .  S
C1835      C1888   1.443       .  S
C1836      C1840   1.558       .  S
C1836      C1838   1.542       .  S
C1836      H1842   1.111       .  S
C1837      H1843   1.087       .  S
C1837      C1838   1.368       .  D
C1838      C1875   1.448       .  S
C1839      H1844   1.087       .  S
C1839      C1840   1.365       .  D
C1840      C1903   1.462       .  S
C1845      C1846   1.532       .  S
C1845      C1851   1.530       .  S
C1845      C1849   1.538       .  S
C1845      C1892   1.475       .  S
C1846      H1853   1.087       .  S
C1846      C1847   1.363       .  D
C1847      C1848   1.542       .  S
C1847      C1920   1.446       .  S
C1848      C1852   1.542       .  S
C1848      C1850   1.540       .  S
C1848      H1854   1.111       .  S
C1849      H1855   1.087       .  S
C1849      C1850   1.368       .  D
C1850      C1911   1.447       .  S
C1851      H1856   1.087       .  S
C1851      C1852   1.364       .  D
C1852      C1869   1.448       .  S
C1857      C1858   1.538       .  S
C1857      C1863   1.532       .  S
C1857      C1861   1.525       .  S
C1857      C1874   1.464       .  S
C1858      H1865   1.086       .  S
C1858      C1859   1.371       .  D
C1859      C1860   1.533       .  S
C1859      C1909   1.440       .  S
C1860      C1864   1.526       .  S
C1860      C1862   1.532       .  S
C1860      H1866   1.112       .  S
C1861      H1867   1.088       .  S
C1861      C1862   1.356       .  D
C1862      C1917   1.427       .  S
C1863      H1868   1.087       .  S
C1863      C1864   1.364       .  D
C1864      C1890   1.429       .  S
C1869      C1870   1.210       .  T
C1871      C1872   1.204       .  T
C1873      C1874   1.204       .  T
C1875      C1876   1.210       .  T
C1877      C1878   1.209       .  T
C1879      C1880   1.210       .  T
C1881      C1882   1.214       .  T
C1883      C1884   1.210       .  T
C1885      C1886   1.197       .  T
C1887      C1888   1.207       .  T
C1889      C1890   1.198       .  T
C1891      C1892   1.210       .  T
C1893      C1894   1.209       .  T
C1895      C1896   1.209       .  T
C1897      C1898   1.214       .  T
C1899      C1900   1.209       .  T
C1901      C1902   1.203       .  T
C1903      C1904   1.219       .  T
C1905      C1906   1.206       .  T
C1907      C1908   1.209       .  T
C1909      C1910   1.205       .  T
C1911      C1912   1.209       .  T
C1913      C1914   1.214       .  T
C1915      C1916   1.207       .  T
C1917      C1918   1.197       .  T
C1919      C1920   1.208       .  T
C1921      C1922   1.209       .  T
C1923      C1924   1.206       .  T
C1925      C1926   1.209       .  T
C1927      C1928   1.210       .  T
C1929      C1930   1.210       .  T
C1931      C1932   1.196       .  T
O1933      C1941   1.267       .  A
O1933     Co1953   2.005       .  S
O1934      C1942   1.245       .  A
O1934     Co1954   1.974       .  S
O1935      C1943   1.262       .  A
O1935     Co1955   1.974       .  S
O1936      C1944   1.252       .  A
O1936     Co1956   1.999       .  S
O1937      C1943   1.268       .  A
O1937     Co1954   2.012       .  S
O1938      C1944   1.244       .  A
O1938     Co1953   1.971       .  S
O1939      C1942   1.251       .  A
O1939     Co1956   2.000       .  S
O1940      C1941   1.259       .  A
O1940     Co1955   1.956       .  S
C1941      C2207   1.418       .  S
C1942      C2202   1.441       .  S
C1943      C2199   1.434       .  S
C1944      C2197   1.440       .  S
O1945      C1958   1.269       .  A
O1945     Co1953   1.905       .  S
O1946      C1959   1.258       .  A
O1946     Co1954   1.995       .  S
O1947      C1960   1.264       .  A
O1947     Co1955   2.008       .  S
O1948      C1961   1.292       .  A
O1948     Co1956   2.054       .  S
O1949      C1961   1.271       .  A
O1949     Co1954   1.894       .  S
O1950      C1960   1.261       .  A
O1950     Co1953   1.989       .  S
O1951      C1958   1.295       .  A
O1951     Co1956   2.077       .  S
O1952      C1959   1.263       .  A
O1952     Co1955   2.010       .  S
Co1953     O1957   1.944       .  S
Co1954     O1957   1.932       .  S
Co1955     O1957   2.089       .  S
Co1956     O1957   2.248       .  S
C1958      C2203   1.442       .  S
C1959      C2205   1.440       .  S
C1960      C2195   1.439       .  S
C1961      C2194   1.419       .  S
O1962      C1970   1.258       .  A
O1963      C1971   1.270       .  A
O1964      C1972   1.291       .  A
O1965      C1973   1.275       .  A
O1966      C1972   1.270       .  A
O1967      C1973   1.256       .  A
O1968      C1971   1.277       .  A
O1969      C1970   1.263       .  A
C1970      C2190   1.449       .  S
C1971      C2180   1.457       .  S
C1972      C2178   1.428       .  S
C1973      C2182   1.433       .  S
O1974      C1987   1.272       .  A
O1974     Co1982   2.032   1_556  S
O1975      C1988   1.296       .  A
O1975     Co1983   2.114   1_556  S
O1976      C1989   1.268       .  A
O1977      C1990   1.251       .  A
O1977     Co1985   1.963       .  S
O1978      C1990   1.265       .  A
O1978     Co1983   2.026   1_556  S
O1979      C1989   1.275       .  A
O1979     Co1982   2.021   1_556  S
O1980      C1987   1.253       .  A
O1981      C1988   1.263       .  A
O1981     Co1984   1.894       .  S
Co1983     O1986   2.019   1_554  S
Co1984     O1986   2.000       .  S
Co1985     O1986   2.031       .  S
C1987      C2186   1.432       .  S
C1988      C2188   1.441       .  S
C1989      C2192   1.435       .  S
C1990      C2184   1.439       .  S
C1991      C1992   1.533       .  S
C1991      C1997   1.529       .  S
C1991      C1995   1.535       .  S
C1991      C2191   1.469       .  S
C1992      H1999   1.087       .  S
C1992      C1993   1.365       .  D
C1993      C1994   1.543       .  S
C1993      C2204   1.449       .  S
C1994      C1998   1.551       .  S
C1994      C1996   1.544       .  S
C1994      H2000   1.111       .  S
C1995      H2001   1.087       .  S
C1995      C1996   1.364       .  D
C1996      C2175   1.448       .  S
C1997      H2002   1.087       .  S
C1997      C1998   1.361       .  D
C1998      C2173   1.454       .  S
O2003      C2011   1.262       .  A
O2003     Co2023   1.962       .  S
O2004      C2012   1.247       .  A
O2005      C2013   1.271       .  A
O2006      C2014   1.287       .  A
O2006     Co2026   2.081       .  S
O2007      C2013   1.256       .  A
O2007     Co2024   1.958       .  S
O2008      C2014   1.264       .  A
O2009      C2012   1.266       .  A
O2010      C2011   1.280       .  A
O2010     Co2025   2.042       .  S
C2011      C2167   1.440       .  S
C2012      C2163   1.435       .  S
C2013      C2172   1.440       .  S
C2014      C2161   1.420       .  S
O2015      C2028   1.292       .  A
O2016      C2029   1.269       .  A
O2016     Co2024   2.014       .  S
O2017      C2030   1.253       .  A
O2017     Co2025   1.974       .  S
O2018      C2031   1.262       .  A
O2019      C2031   1.280       .  A
O2020      C2030   1.262       .  A
O2020     Co2023   2.014       .  S
O2021      C2028   1.266       .  A
O2021     Co2026   1.910       .  S
O2022      C2029   1.256       .  A
Co2023     O2027   2.010       .  S
Co2025     O2027   2.032       .  S
C2028      C2160   1.442       .  S
C2029      C2165   1.420       .  S
C2030      C2176   1.440       .  S
C2031      C2170   1.440       .  S
C2032      C2033   1.531       .  S
C2032      C2038   1.538       .  S
C2032      C2036   1.539       .  S
C2032      C2158   1.482       .  S
C2033      H2040   1.087       .  S
C2033      C2034   1.361       .  D
C2034      C2035   1.543       .  S
C2034      C2171   1.447       .  S
C2035      C2039   1.536       .  S
C2035      C2037   1.537       .  S
C2035      H2041   1.111       .  S
C2036      H2042   1.086       .  S
C2036      C2037   1.370       .  D
C2037      C2206   1.449       .  S
C2038      H2043   1.086       .  S
C2038      C2039   1.370       .  D
C2039      C2183   1.448       .  S
O2044      C2052   1.278       .  A
O2045      C2053   1.265       .  A
O2045     Co2065   2.021       .  S
O2046      C2054   1.269       .  A
O2047      C2055   1.259       .  A
O2047     Co2067   1.962       .  S
O2048      C2054   1.289       .  A
O2049      C2055   1.273       .  A
O2049     Co2064   2.033       .  S
O2050      C2053   1.259       .  A
O2051      C2052   1.267       .  A
O2051     Co2066   1.975       .  S
C2052      C2174   1.448       .  S
C2053      C2157   1.448       .  S
C2054      C2149   1.432       .  S
C2055      C2146   1.441       .  S
O2056      C2069   1.252       .  A
O2056     Co2064   1.946       .  S
O2057      C2070   1.265       .  A
O2058      C2071   1.265       .  A
O2058     Co2066   2.030       .  S
O2059      C2072   1.277       .  A
O2060      C2072   1.265       .  A
O2060     Co2065   1.971       .  S
O2061      C2071   1.250       .  A
O2062      C2069   1.272       .  A
O2062     Co2067   2.030       .  S
O2063      C2070   1.292       .  A
Co2064     O2068   2.030       .  S
Co2067     O2068   2.044       .  S
C2069      C2148   1.431       .  S
C2070      C2154   1.441       .  S
C2071      C2156   1.441       .  S
C2072      C2152   1.441       .  S
C2073      C2074   1.537       .  S
C2073      C2079   1.529       .  S
C2073      C2077   1.531       .  S
C2073      C2201   1.474       .  S
C2074      H2081   1.086       .  S
C2074      C2075   1.369       .  D
C2075      C2076   1.535       .  S
C2075      C2181   1.443       .  S
C2076      C2080   1.544       .  S
C2076      C2078   1.544       .  S
C2076      H2082   1.111       .  S
C2077      H2083   1.087       .  S
C2077      C2078   1.363       .  D
C2078      C2153   1.447       .  S
C2079      H2084   1.087       .  S
C2079      C2080   1.363       .  D
C2080      C2169   1.446       .  S
C2085      C2086   1.529       .  S
C2085      C2091   1.538       .  S
C2085      C2089   1.527       .  S
C2085      C2177   1.462       .  S
C2086      H2093   1.087       .  S
C2086      C2087   1.363       .  D
C2087      C2088   1.526       .  S
C2087      C2208   1.427       .  S
C2088      C2092   1.530       .  S
C2088      C2090   1.533       .  S
C2088      H2094   1.112       .  S
C2089      H2095   1.088       .  S
C2089      C2090   1.358       .  D
C2090      C2162   1.426       .  S
C2091      H2096   1.086       .  S
C2091      C2092   1.370       .  D
C2092      C2147   1.439       .  S
C2097      C2098   1.539       .  S
C2097      C2103   1.535       .  S
C2097      C2101   1.537       .  S
C2097      C2189   1.483       .  S
C2098      H2105   1.086       .  S
C2098      C2099   1.370       .  D
C2099      C2100   1.536       .  S
C2099      C2155   1.450       .  S
C2100      C2104   1.540       .  S
C2100      C2102   1.540       .  S
C2100      H2106   1.112       .  S
C2101      H2107   1.087       .  S
C2101      C2102   1.367       .  D
C2102      C2159   1.448       .  S
C2103      H2108   1.087       .  S
C2103      C2104   1.364       .  D
C2104      C2198   1.447       .  S
C2109      C2110   1.523       .  S
C2109      C2115   1.531       .  S
C2109      C2113   1.535       .  S
C2109      C2200   1.467       .  S
C2110      H2117   1.088       .  S
C2110      C2111   1.357       .  D
C2111      C2112   1.548       .  S
C2111      C2164   1.443       .  S
C2112      C2116   1.558       .  S
C2112      C2114   1.542       .  S
C2112      H2118   1.111       .  S
C2113      H2119   1.087       .  S
C2113      C2114   1.368       .  D
C2114      C2151   1.448       .  S
C2115      H2120   1.087       .  S
C2115      C2116   1.365       .  D
C2116      C2179   1.462       .  S
C2121      C2122   1.532       .  S
C2121      C2127   1.530       .  S
C2121      C2125   1.538       .  S
C2121      C2168   1.475       .  S
C2122      H2129   1.087       .  S
C2122      C2123   1.363       .  D
C2123      C2124   1.542       .  S
C2123      C2196   1.446       .  S
C2124      C2128   1.542       .  S
C2124      C2126   1.540       .  S
C2124      H2130   1.111       .  S
C2125      H2131   1.087       .  S
C2125      C2126   1.368       .  D
C2126      C2187   1.447       .  S
C2127      H2132   1.087       .  S
C2127      C2128   1.364       .  D
C2128      C2145   1.448       .  S
C2133      C2134   1.538       .  S
C2133      C2139   1.532       .  S
C2133      C2137   1.525       .  S
C2133      C2150   1.464       .  S
C2134      H2141   1.086       .  S
C2134      C2135   1.371       .  D
C2135      C2136   1.533       .  S
C2135      C2185   1.440       .  S
C2136      C2140   1.526       .  S
C2136      C2138   1.532       .  S
C2136      H2142   1.112       .  S
C2137      H2143   1.088       .  S
C2137      C2138   1.356       .  D
C2138      C2193   1.427       .  S
C2139      H2144   1.087       .  S
C2139      C2140   1.364       .  D
C2140      C2166   1.429       .  S
C2145      C2146   1.210       .  T
C2147      C2148   1.204       .  T
C2149      C2150   1.204       .  T
C2151      C2152   1.210       .  T
C2153      C2154   1.209       .  T
C2155      C2156   1.210       .  T
C2157      C2158   1.214       .  T
C2159      C2160   1.210       .  T
C2161      C2162   1.197       .  T
C2163      C2164   1.207       .  T
C2165      C2166   1.198       .  T
C2167      C2168   1.210       .  T
C2169      C2170   1.209       .  T
C2171      C2172   1.209       .  T
C2173      C2174   1.214       .  T
C2175      C2176   1.209       .  T
C2177      C2178   1.203       .  T
C2179      C2180   1.219       .  T
C2181      C2182   1.206       .  T
C2183      C2184   1.209       .  T
C2185      C2186   1.205       .  T
C2187      C2188   1.209       .  T
C2189      C2190   1.214       .  T
C2191      C2192   1.207       .  T
C2193      C2194   1.197       .  T
C2195      C2196   1.208       .  T
C2197      C2198   1.209       .  T
C2199      C2200   1.206       .  T
C2201      C2202   1.210       .  T
C2203      C2204   1.210       .  T
C2205      C2206   1.210       .  T
C2207      C2208   1.196       .  T
