geometry optimzed in LAMMPS
_audit_creation_date              2020-11-30 
_audit_creation_method            'lammps2cif' 
_symmetry_space_group_name_H-M    'P1' 
_symmetry_Int_Tables_number       1 
_symmetry_cell_setting            triclinic 
loop_ 
_symmetry_equiv_pos_as_xyz 
  x,y,z 
_cell_length_a                    37.85536133 
_cell_length_b                    63.76834303069598 
_cell_length_c                    27.513334010686176 
_cell_angle_alpha                 89.76668171432144 
_cell_angle_beta                  90.05835303204532 
_cell_angle_gamma                 90.1562038320241 
loop_ 
_atom_site_label 
_atom_site_type_symbol 
_atom_site_fract_x 
_atom_site_fract_y 
_atom_site_fract_z 
_atom_site_charge 
N1          N  0.49516768  0.46865872  0.02710504    -0.36300
N2          N  0.44193637  0.50102885  0.02399817    -0.56800
N3          N  0.49922671  0.53142008  0.01293106    -0.36300
N4          N  0.55233433  0.49919116  0.02106926    -0.56800
C5          C  0.46574440  0.45727900  0.03645100     0.27300
C6          C  0.52328673  0.45629444  0.03673775     0.27300
C7          C  0.47151986  0.54410316  0.02212909     0.27300
C8          C  0.52884141  0.54303302  0.01885970     0.27300
C9          C  0.42049124  0.48432755  0.01742683     0.35900
C10         C  0.42270514  0.51817725  0.01297209     0.35900
C11         C  0.57157112  0.48157501  0.01634569     0.35900
C12         C  0.57369197  0.51523146  0.00809950     0.35900
C13         C  0.47530782  0.43748770  0.05289096    -0.21600
C14         C  0.51158064  0.43685007  0.05295632    -0.21600
C15         C  0.48373604  0.56399421  0.03394312    -0.21600
C16         C  0.51986413  0.56329320  0.03200514    -0.21600
C17         C  0.38712927  0.49091400  0.00341439    -0.22600
C18         C  0.38846930  0.51246264  0.00093994    -0.22600
C19         C  0.60569785  0.48648720  0.00179878    -0.22600
C20         C  0.60701125  0.50790425  0.99648665    -0.22600
C21         C  0.43071741  0.46329995  0.02489081    -0.18000
C22         C  0.55891186  0.46117041  0.02585290    -0.18000
C23         C  0.56362037  0.53643532  0.00862623    -0.18000
C24         C  0.43555105  0.53890309  0.01528803    -0.18000
H25         H  0.45792099  0.42457958  0.06221143     0.14900
H26         H  0.52747975  0.42333907  0.06229403     0.14900
H27         H  0.46828371  0.57779774  0.04198514     0.14900
H28         H  0.53750181  0.57637659  0.03850678     0.14900
H29         H  0.36427132  0.48122762  0.99585910     0.13200
H30         H  0.36689458  0.52272454  0.99097198     0.13200
H31         H  0.62732543  0.47576860  0.99551918     0.13200
H32         H  0.62979105  0.51701804  0.98536584     0.13200
H33         H  0.49596204  0.48270810  0.00785813     0.26500
H34         H  0.49783353  0.51673979  0.99662158     0.26500
N35         N  0.99565967  0.97003768  0.03652191    -0.36300
N36         N  0.94106060  0.00148630  0.03894133    -0.56800
N37         N  0.99772894  0.03176478  0.02711628    -0.36300
N38         N  0.05216601  0.00044131  0.02741555    -0.56800
C39         C  0.96694609  0.95862418  0.04911322     0.27300
C40         C  0.02436728  0.95812887  0.04593502     0.27300
C41         C  0.97040344  0.04401791  0.04043897     0.27300
C42         C  0.02740994  0.04336384  0.03198239     0.27300
C43         C  0.92080168  0.98459563  0.02886255     0.35900
C44         C  0.92201462  0.01857772  0.02674491     0.35900
C45         C  0.07048939  0.98292427  0.01735620     0.35900
C46         C  0.07122243  0.01663359  0.00968898     0.35900
C47         C  0.97751767  0.93942408  0.06789715    -0.21600
C48         C  0.01380617  0.93911875  0.06595041    -0.21600
C49         C  0.98298778  0.06345828  0.05512419    -0.21600
C50         C  0.01904576  0.06302436  0.04984029    -0.21600
C51         C  0.88812808  0.99096080  0.01157380    -0.22600
C52         C  0.88884511  0.01262261  0.01044723    -0.22600
C53         C  0.10202055  0.98798939  0.99450942    -0.22600
C54         C  0.10242602  0.00949165  0.98945909    -0.22600
C55         C  0.93185858  0.96368008  0.03615921    -0.18000
C56         C  0.05888755  0.96256076  0.02922573    -0.18000
C57         C  0.06073085  0.03770231  0.01342900    -0.18000
C58         C  0.93457273  0.03933095  0.03129449    -0.18000
H59         H  0.96072028  0.92655750  0.07934242     0.14900
H60         H  0.03041989  0.92594572  0.07556318     0.14900
H61         H  0.96765592  0.07694101  0.06600785     0.14900
H62         H  0.03689895  0.07604166  0.05596051     0.14900
H63         H  0.86624254  0.98106133  0.00078386     0.13200
H64         H  0.86766989  0.02278578  0.99849130     0.13200
H65         H  0.12231534  0.97731603  0.98230677     0.13200
H66         H  0.12313924  0.01875390  0.97274643     0.13200
H67         H  0.99530456  0.98328106  0.01448451     0.26500
H68         H  0.99567919  0.01796860  0.00734219     0.26500
O69         O  0.31107336  0.26419412  0.02422428    -0.88000
C70         C  0.21169794  0.26909422  0.07834680     0.88000
Mg71       Mg  0.32524152  0.27311212  0.95184323     1.58100
O72         O  0.23776664  0.21758351  0.05391822    -0.87700
O73         O  0.31350671  0.23653384  0.07214950    -0.75100
C74         C  0.20032056  0.22937555  0.81696637     0.93100
O75         O  0.25069710  0.29682333  0.99640016    -0.74900
O76         O  0.22465037  0.24308692  0.81363685    -0.82400
Mg77       Mg  0.28114578  0.28636317  0.06478196     1.58000
C78         C  0.17353700  0.17766949  0.97864217     0.93000
O79         O  0.31253251  0.27856866  0.13410789    -0.80700
H80         H  0.27086567  0.19355147  0.06388779    -0.06000
C81         C  0.18140085  0.24677864  0.94651816     0.87900
O82         O  0.32283791  0.23836071  0.92905694    -0.75200
O83         O  0.24261868  0.26290497  0.07895121    -0.87900
O84         O  0.17394752  0.18887755  0.01689475    -0.80700
C85         C  0.17800813  0.22364011  0.15540605     0.93100
C86         C  0.31043761  0.26702978  0.17191507     0.93000
Mg87       Mg  0.22693083  0.20943957  0.92504155     1.58000
O88         O  0.19659236  0.21815454  0.85508986    -0.80700
O89         O  0.25596285  0.19785217  0.99366074    -0.74900
O90         O  0.20881285  0.23185296  0.15850726    -0.80700
O91         O  0.31928926  0.31260212  0.04998300    -0.82400
O92         O  0.30194074  0.26290958  0.83306740    -0.80800
C93         C  0.25509277  0.20254930  0.03856667     0.87400
O94         O  0.26707771  0.23234860  0.91202573    -0.87900
O95         O  0.19793083  0.23217095  0.96559103    -0.88000
O96         O  0.19555411  0.25891609  0.91522022    -0.75100
Mg97       Mg  0.26046609  0.23470136  0.11298648     1.58000
O98         O  0.16658596  0.21597223  0.11568443    -0.82400
H99         H  0.35428516  0.24637147  0.02991423    -0.06200
O100        O  0.27053483  0.27766148  0.93609479    -0.87700
H101        H  0.23508371  0.30048470  0.92629393    -0.06000
H102        H  0.30441607  0.21049184  0.90388942    -0.06200
C103        C  0.25183607  0.29208934  0.95153145     0.87400
C104        C  0.32750194  0.24917562  0.04179062     0.88000
C105        C  0.29817641  0.22641748  0.91404254     0.88000
H106        H  0.15439020  0.24954775  0.95742542    -0.06200
O107        O  0.18670723  0.25770188  0.06247837    -0.75200
Mg108      Mg  0.24970860  0.26043825  0.87669754     1.58000
H109        H  0.20597915  0.28489090  0.09001952    -0.06200
C110        C  0.32982763  0.31973812  0.00935072     0.93000
O111        O  0.34258892  0.28047750  0.87470558    -0.82400
C112        C  0.33218935  0.27171022  0.83570394     0.93100
O113        O  0.28783204  0.25222132  0.17532439    -0.82400
Mg114      Mg  0.18316257  0.22344069  0.03819119     1.58200
O115        O  0.33071085  0.30840220  0.97125416    -0.80700
O116        O  0.18657568  0.18424299  0.93884304    -0.82400
O117        O  0.81386186  0.23820099  0.96851643    -0.88000
C118        C  0.71555795  0.23181201  0.91155517     0.88000
Mg119      Mg  0.82738421  0.23008701  0.04166846     1.58100
O120        O  0.74140513  0.28350309  0.93643436    -0.87700
O121        O  0.81727400  0.26513904  0.91880011    -0.75100
C122        C  0.69779811  0.27210573  0.17178177     0.93100
O123        O  0.75415109  0.20476618  0.99515411    -0.74900
O124        O  0.72160887  0.25813397  0.17617172    -0.82400
Mg125      Mg  0.78521345  0.21531086  0.92752971     1.58000
C126        C  0.67722154  0.32334682  0.00736120     0.93000
O127        O  0.81711535  0.22341601  0.85867057    -0.80700
H128        H  0.77613858  0.30694129  0.92836580    -0.06000
C129        C  0.68298946  0.25443858  0.04196071     0.87900
O130        O  0.82322344  0.26455579  0.06447551    -0.75200
O131        O  0.74637408  0.23825811  0.91124275    -0.87900
O132        O  0.67715920  0.31165303  0.97004301    -0.80700
C133        C  0.68268912  0.27810325  0.83301659     0.93100
C134        C  0.81465651  0.23482193  0.82062309     0.93000
Mg135      Mg  0.72820702  0.29204982  0.06525858     1.58000
O136        O  0.69588167  0.28373650  0.13405009    -0.80700
O137        O  0.75931799  0.30288387  0.99777860    -0.74900
O138        O  0.71330214  0.26973210  0.82998474    -0.80700
O139        O  0.82372193  0.18939866  0.94475229    -0.82400
O140        O  0.80026418  0.23854254  0.16154284    -0.80800
C141        C  0.75920059  0.29822157  0.95282040     0.87400
O142        O  0.76728411  0.26938352  0.08130227    -0.87900
O143        O  0.70005728  0.26906287  0.02375900    -0.88000
O144        O  0.69637496  0.24221678  0.07359870    -0.75100
Mg145      Mg  0.76428219  0.26663883  0.87754067     1.58000
O146        O  0.67102734  0.28472369  0.87337557    -0.82400
H147        H  0.85760318  0.25565894  0.96226275    -0.06200
O148        O  0.77249427  0.22418979  0.05613418    -0.87700
H149        H  0.73755982  0.20090545  0.06471096    -0.06000
H150        H  0.80365574  0.29176973  0.09112384     0.01000
C151        C  0.75450985  0.20950327  0.04004400     0.87400
C152        C  0.83080489  0.25287082  0.95024491     0.88000
C153        C  0.79812529  0.27582946  0.08017696     0.88000
H154        H  0.65622719  0.25166868  0.02977352    -0.06200
O155        O  0.69037999  0.24301839  0.92713672    -0.75200
Mg156      Mg  0.74936595  0.24100940  0.11481130     1.58000
H157        H  0.71011581  0.21594358  0.90000313    -0.06200
C158        C  0.83648149  0.18346938  0.98527986     0.93000
O159        O  0.84328649  0.22326694  0.11940097    -0.82400
C160        C  0.83098015  0.23037638  0.15910175     0.93100
O161        O  0.79149658  0.24917360  0.81646736    -0.82400
Mg162      Mg  0.68658467  0.27733574  0.95064977     1.58200
O163        O  0.83666733  0.19535867  0.02242127    -0.80700
O164        O  0.68964573  0.31752119  0.04805241    -0.82400
O165        O  0.68786044  0.73305001  0.02648302    -0.88000
C166        C  0.78640541  0.72876678  0.08104365     0.88000
Mg167      Mg  0.67569080  0.72429353  0.95333366     1.58100
O168        O  0.75809206  0.77994611  0.05651421    -0.87700
O169        O  0.68299055  0.76009113  0.07505558    -0.75100
C170        C  0.79934121  0.77060462  0.81879797     0.93100
O171        O  0.74882595  0.70086774  0.00040912    -0.74900
O172        O  0.77679588  0.75579574  0.81638447    -0.82400
Mg173      Mg  0.71708852  0.71076578  0.06819034     1.58000
C174        C  0.82007556  0.82245019  0.98483644     0.93000
O175        O  0.68502586  0.71808625  0.13763945    -0.80700
H176        H  0.72267608  0.80283571  0.06514838    -0.06000
C177        C  0.81816918  0.75337491  0.94948682     0.87900
O178        O  0.67687323  0.75897140  0.92999682    -0.75200
O179        O  0.75519257  0.73440609  0.08341268    -0.87900
O180        O  0.82054865  0.81031735  0.02187582    -0.80700
C181        C  0.81751050  0.77491832  0.15978383     0.93100
C182        C  0.68678156  0.72960301  0.17541277     0.93000
Mg183      Mg  0.77035473  0.78975717  0.92711431     1.58000
O184        O  0.80179467  0.78227099  0.85639346    -0.80700
O185        O  0.73957198  0.79956490  0.99561125    -0.74900
O186        O  0.78701524  0.76633307  0.16276503    -0.80700
O187        O  0.67878646  0.68455146  0.05190977    -0.82400
O188        O  0.70077072  0.73400147  0.83357131    -0.80800
C189        C  0.73981479  0.79452363  0.04046442     0.87400
O190        O  0.73221243  0.76596284  0.91231722    -0.87900
O191        O  0.80011665  0.76733102  0.96815291    -0.88000
O192        O  0.80532777  0.74076006  0.91843099    -0.75100
Mg193      Mg  0.73591206  0.76256248  0.11615620     1.58000
O194        O  0.82934874  0.78207635  0.11963498    -0.82400
H195        H  0.64325761  0.74962165  0.03178426    -0.06200
O196        O  0.73088058  0.72057796  0.93945540    -0.87700
H197        H  0.76684453  0.69794535  0.93127930    -0.06000
H198        H  0.69366772  0.78704079  0.90358135    -0.06200
C199        C  0.74926049  0.70609071  0.95566892     0.87400
C200        C  0.67014032  0.74743076  0.04405680     0.88000
C201        C  0.70080091  0.77126955  0.91421404     0.88000
H202        H  0.84534501  0.75152431  0.96079283    -0.06200
O203        O  0.81052335  0.74069332  0.06440417    -0.75200
Mg204      Mg  0.75179229  0.73797425  0.87923143     1.58000
H205        H  0.79312098  0.71292871  0.09166133    -0.06200
C206        C  0.66924993  0.67779680  0.01054884     0.93000
O207        O  0.66054698  0.71643676  0.87616315    -0.82400
C208        C  0.67113931  0.72447266  0.83644692     0.93100
O209        O  0.70885093  0.74470696  0.17842939    -0.82400
Mg210      Mg  0.81319019  0.77531566  0.04157803     1.58200
O211        O  0.67050524  0.68916125  0.97241566    -0.80700
O212        O  0.80837373  0.81630739  0.94391298    -0.82400
O213        O  0.18927086  0.76659826  0.96799528    -0.88000
C214        C  0.28859798  0.77251251  0.91459500     0.88000
Mg215      Mg  0.17503824  0.77504668  0.04034123     1.58100
O216        O  0.26244476  0.72093531  0.93972107    -0.87700
O217        O  0.18668546  0.73921843  0.92003688    -0.75100
C218        C  0.30006291  0.73153590  0.17672806     0.93100
O219        O  0.24846364  0.80026224  0.99507988    -0.74900
O220        O  0.27769434  0.74638515  0.17818395    -0.82400
Mg221      Mg  0.21847875  0.78929537  0.92687951     1.58000
C222        C  0.32479424  0.68027369  0.01278358     0.93000
O223        O  0.18777454  0.78062521  0.85756139    -0.80700
H224        H  0.22826882  0.69737700  0.92985235    -0.06000
C225        C  0.31936510  0.74967593  0.04615114     0.87900
O226        O  0.17819157  0.74058017  0.06431361    -0.75200
O227        O  0.25767770  0.76622339  0.91296214    -0.87900
O228        O  0.32616944  0.69226528  0.97573609    -0.80700
C229        C  0.32172482  0.72575123  0.83753606     0.93100
C230        C  0.18931362  0.76872914  0.82055732     0.93000
Mg231      Mg  0.27293677  0.71205982  0.06842486     1.58000
O232        O  0.30308217  0.71985881  0.13935567    -0.80700
O233        O  0.24326985  0.70131477  0.00002509    -0.74900
O234        O  0.29135511  0.73433844  0.83415196    -0.80700
O235        O  0.17933727  0.81524689  0.94182858    -0.82400
O236        O  0.19982774  0.76626361  0.16066152    -0.80800
C237        C  0.24448206  0.70607841  0.95513440     0.87400
O238        O  0.23392376  0.73524153  0.08199596    -0.87900
O239        O  0.30279274  0.73490141  0.02792704    -0.88000
O240        O  0.30521742  0.76212764  0.07638962    -0.75100
Mg241      Mg  0.24001214  0.73761442  0.88006597     1.58000
O242        O  0.33357831  0.71924196  0.87819581    -0.82400
H243        H  0.14574261  0.74897495  0.96172119    -0.06200
O244        O  0.22974775  0.78058102  0.05569431    -0.87700
H245        H  0.26406588  0.80412257  0.06507791    -0.06000
H246        H  0.19693621  0.71316447  0.09158026    -0.06200
C247        C  0.24767520  0.79542381  0.04000899     0.87400
C248        C  0.17266099  0.75173911  0.95021879     0.88000
C249        C  0.20293572  0.72905557  0.08043677     0.88000
H250        H  0.34636636  0.75242739  0.03500482    -0.06200
O251        O  0.31339764  0.76112652  0.93105741    -0.75200
Mg252      Mg  0.25155181  0.76362814  0.11554648     1.58000
H253        H  0.29446617  0.78840592  0.90333275    -0.06200
C254        C  0.16784980  0.82160534  0.98257288     0.93000
O255        O  0.15829205  0.78240458  0.11728283    -0.82400
C256        C  0.16929316  0.77464585  0.15715765     0.93100
O257        O  0.21265748  0.75441800  0.81744219    -0.82400
Mg258      Mg  0.31716465  0.72672313  0.95520679     1.58200
O259        O  0.16735591  0.80970749  0.01990320    -0.80700
O260        O  0.31152720  0.68605039  0.05298628    -0.82400
C261        C  0.02434445  0.22350210  0.45579736     0.02600
C262        C  0.98708140  0.22514644  0.45559975     0.02600
C263        C  0.96885371  0.22624974  0.49991753    -0.17900
C264        C  0.98694388  0.22592581  0.54444833     0.02600
C265        C  0.02405280  0.22424280  0.54456903     0.02600
C266        C  0.04230563  0.22315936  0.50039388    -0.17900
H267        H  0.07092771  0.22239402  0.50074536     0.04600
H268        H  0.94028755  0.22752667  0.49974619     0.04600
C269        C  0.97615285  0.77473622  0.45635524     0.02600
C270        C  0.01354504  0.77514756  0.45604128     0.02600
C271        C  0.03173475  0.77641016  0.50036883    -0.17900
C272        C  0.01393710  0.77648273  0.54505796     0.02600
C273        C  0.97664586  0.77512355  0.54550235     0.02600
C274        C  0.95825388  0.77458573  0.50110653    -0.17900
H275        H  0.92961777  0.77400363  0.50138500     0.04600
H276        H  0.06037055  0.77706291  0.50010053     0.04600
C277        C  0.51206270  0.72060126  0.45003554     0.02600
C278        C  0.47480913  0.72098558  0.45258668     0.02600
C279        C  0.45828740  0.72078966  0.49819883    -0.17900
C280        C  0.47809100  0.72038362  0.54130666     0.02600
C281        C  0.51535316  0.72015733  0.53876498     0.02600
C282        C  0.53182159  0.72003765  0.49314589    -0.17900
H283        H  0.56043856  0.71979362  0.49117296     0.04600
H284        H  0.42967676  0.72113309  0.50018055     0.04600
C285        C  0.52320227  0.27419631  0.44741606     0.02600
C286        C  0.48587327  0.27356910  0.44794226     0.02600
C287        C  0.46835155  0.27309779  0.49300313    -0.17900
C288        C  0.48717690  0.27334183  0.53715614     0.02600
C289        C  0.52448085  0.27391735  0.53629908     0.02600
C290        C  0.54196652  0.27435657  0.49146943    -0.17900
H291        H  0.57060919  0.27486859  0.49082879     0.04600
H292        H  0.43971914  0.27262849  0.49374106     0.04600
C293        C  0.32467951  0.72838375  0.21828019    -0.11600
C294        C  0.31643697  0.73451986  0.26635037     0.03800
C295        C  0.34202075  0.73287177  0.30302074    -0.12200
C296        C  0.37595480  0.72525638  0.29295687     0.18700
C297        C  0.38394651  0.71862425  0.24555395    -0.09200
C298        C  0.35844006  0.72013404  0.20887197    -0.02200
H299        H  0.33547475  0.73765029  0.33966475     0.05200
C300        C  0.40263471  0.72433121  0.33235863     0.20700
H301        H  0.36554931  0.71546538  0.17236091     0.10400
C302        C  0.41318363  0.70476036  0.35078410    -0.15600
C303        C  0.43754897  0.70341323  0.38899389     0.03400
C304        C  0.45213585  0.72180426  0.40884893    -0.10900
C305        C  0.44158082  0.74135689  0.39053572    -0.00900
C306        C  0.41706339  0.74274337  0.35255592    -0.06100
H307        H  0.40188870  0.69051876  0.33599524     0.06400
H308        H  0.45174908  0.75560335  0.40667726     0.09800
Br309      Br  0.42999377  0.70849246  0.22860228    -0.05800
Br310      Br  0.27062321  0.74454740  0.28512716    -0.02700
Br311      Br  0.44888827  0.67626212  0.41472437     0.00100
Br312      Br  0.40404078  0.77010112  0.32958015    -0.04200
C313        C  0.45879935  0.72078076  0.58802017    -0.11600
C314        C  0.44577709  0.73972029  0.60694479     0.03800
C315        C  0.42428492  0.73947129  0.64828305    -0.12200
C316        C  0.41528790  0.72049414  0.67108769     0.18700
C317        C  0.42837168  0.70153381  0.65226474    -0.09200
C318        C  0.44996073  0.70179446  0.61095400    -0.02200
H319        H  0.41413646  0.75411033  0.66234542     0.05200
C320        C  0.39136014  0.72087663  0.71353859     0.20700
H321        H  0.45907978  0.68711103  0.59587019     0.10400
C322        C  0.35509778  0.72390208  0.70617131    -0.15600
C323        C  0.33169773  0.72519779  0.74550406     0.03400
C324        C  0.34469619  0.72365699  0.79374176    -0.10900
C325        C  0.38121863  0.72033728  0.80058681    -0.00900
C326        C  0.40439822  0.71900335  0.76114035    -0.06100
H327        H  0.34493771  0.72524984  0.66945932     0.06400
H328        H  0.39210325  0.71915756  0.83691059     0.09800
Br329      Br  0.41602834  0.67494920  0.68041275    -0.05800
Br330      Br  0.45559725  0.76617110  0.57637410    -0.02700
Br331      Br  0.28250622  0.72835116  0.72984284     0.00100
Br332      Br  0.45388518  0.71532270  0.77385301    -0.04200
C333        C  0.14591823  0.77522055  0.20056294    -0.11600
C334        C  0.10862098  0.77448935  0.19660031     0.03800
C335        C  0.08766007  0.77501872  0.23842648    -0.12200
C336        C  0.10282928  0.77611263  0.28483113     0.18700
C337        C  0.14001754  0.77618849  0.28904250    -0.09200
C338        C  0.16110035  0.77582987  0.24719840    -0.02200
H339        H  0.05918947  0.77412176  0.23476378     0.05200
C340        C  0.07929839  0.77602486  0.32809699     0.20700
H341        H  0.18957178  0.77612807  0.25121420     0.10400
C342        C  0.08163687  0.75943605  0.36155835    -0.15600
C343        C  0.06003380  0.75872184  0.40271220     0.03400
C344        C  0.03472511  0.77458510  0.41057915    -0.10900
C345        C  0.03174174  0.79093625  0.37654760    -0.00900
C346        C  0.05371000  0.79177195  0.33560238    -0.06100
H347        H  0.10050241  0.74695840  0.35567811     0.06400
H348        H  0.01295738  0.80343844  0.38257412     0.09800
Br349      Br  0.16354840  0.77706814  0.35085898    -0.05800
Br350      Br  0.08423252  0.77092710  0.13589319    -0.02700
Br351      Br  0.06608122  0.73551531  0.44667687     0.00100
Br352      Br  0.04878867  0.81531656  0.29248341    -0.04200
C353        C  0.03563168  0.77667198  0.58998167    -0.11600
C354        C  0.05990168  0.79304527  0.59924827     0.03800
C355        C  0.08375552  0.79132229  0.63783067    -0.12200
C356        C  0.08427979  0.77337146  0.66728103     0.18700
C357        C  0.05947009  0.75727390  0.65908665    -0.09200
C358        C  0.03541490  0.75900420  0.62059773    -0.02200
H359        H  0.10253290  0.80386350  0.64429718     0.05200
C360        C  0.11105196  0.77190897  0.70623012     0.20700
H361        H  0.01739275  0.74616217  0.61343655     0.10400
C362        C  0.10642957  0.78364981  0.74851911    -0.15600
C363        C  0.13153953  0.78326285  0.78586096     0.03400
C364        C  0.16262107  0.77097855  0.78090808    -0.10900
C365        C  0.16713550  0.75941302  0.73778761    -0.00900
C366        C  0.14176132  0.75981396  0.70076206    -0.06100
H367        H  0.08286193  0.79308857  0.75262963     0.06400
H368        H  0.19046061  0.74987241  0.73272222     0.09800
Br369      Br  0.05793883  0.73255782  0.69895435    -0.05800
Br370      Br  0.06209875  0.81797816  0.55997256    -0.02700
Br371      Br  0.12002867  0.79945827  0.84248863     0.00100
Br372      Br  0.15035689  0.74386631  0.64298244    -0.04200
C373        C  0.53798983  0.72048121  0.58267116    -0.11600
C374        C  0.55875688  0.73818399  0.59392964     0.03800
C375        C  0.58155610  0.73768949  0.63392477    -0.12200
C376        C  0.58456800  0.71959853  0.66278190     0.18700
C377        C  0.56406081  0.70179601  0.65120750    -0.09200
C378        C  0.54100908  0.70235810  0.61139390    -0.02200
H379        H  0.59681613  0.75155291  0.64282188     0.05200
C380        C  0.60738146  0.72012891  0.70656717     0.20700
H381        H  0.52594455  0.68846607  0.60220784     0.10400
C382        C  0.59146227  0.71864635  0.75236599    -0.15600
C383        C  0.61144774  0.71997268  0.79499367     0.03400
C384        C  0.64857754  0.72274048  0.79233876    -0.10900
C385        C  0.66439131  0.72441362  0.74619915    -0.00900
C386        C  0.64419559  0.72318975  0.70362670    -0.06100
H387        H  0.56304051  0.71686775  0.75494484     0.06400
H388        H  0.69268854  0.72661140  0.74308688     0.09800
Br389      Br  0.56768941  0.67611662  0.68745303    -0.05800
Br390      Br  0.55665930  0.76346876  0.55601260    -0.02700
Br391      Br  0.58536802  0.71938120  0.85489996     0.00100
Br392      Br  0.66828793  0.72540695  0.64247892    -0.04200
C393        C  0.66104317  0.72584911  0.21546660    -0.11600
C394        C  0.66909494  0.72984695  0.26474887     0.03800
C395        C  0.64270749  0.72798225  0.30028117    -0.12200
C396        C  0.60828975  0.72171732  0.28797142     0.18700
C397        C  0.60052410  0.71685766  0.23928902    -0.09200
C398        C  0.62673437  0.71892238  0.20362448    -0.02200
H399        H  0.64909883  0.73135526  0.33784807     0.05200
C400        C  0.58073594  0.72103015  0.32627061     0.20700
H401        H  0.61989318  0.71567220  0.16615437     0.10400
C402        C  0.56764282  0.73995857  0.34476488    -0.15600
C403        C  0.54348571  0.74004318  0.38328150     0.03400
C404        C  0.53174258  0.72096718  0.40360051    -0.10900
C405        C  0.54420563  0.70202064  0.38446040    -0.00900
C406        C  0.56862719  0.70192610  0.34620618    -0.06100
H407        H  0.57699715  0.75473677  0.33000283     0.06400
H408        H  0.53614413  0.68729001  0.40083702     0.09800
Br409      Br  0.55409474  0.70816858  0.21963318    -0.05800
Br410      Br  0.71596820  0.73653802  0.28634543    -0.02700
Br411      Br  0.52916318  0.76654637  0.40931140     0.00100
Br412      Br  0.58669515  0.67545091  0.32487148    -0.04200
C413        C  0.95574933  0.77440112  0.59111931    -0.11600
C414        C  0.94780483  0.79275285  0.61714802     0.03800
C415        C  0.92367811  0.79200508  0.65569584    -0.12200
C416        C  0.90741971  0.77307072  0.66943203     0.18700
C417        C  0.91662660  0.75451736  0.64475076    -0.09200
C418        C  0.94032616  0.75534584  0.60567135    -0.02200
H419        H  0.91680862  0.80638945  0.67419969     0.05200
C420        C  0.87957640  0.77324770  0.70755863     0.20700
H421        H  0.94633397  0.74111474  0.58598636     0.10400
C422        C  0.84468085  0.76800414  0.69502296    -0.15600
C423        C  0.81767512  0.76789628  0.72990470     0.03400
C424        C  0.82534930  0.77322046  0.77868053    -0.10900
C425        C  0.86004710  0.77927948  0.79056516    -0.00900
C426        C  0.88699824  0.77922826  0.75572902    -0.06100
H427        H  0.83842486  0.76396090  0.65777448     0.06400
H428        H  0.86668288  0.78323540  0.82773298     0.09800
Br429      Br  0.89785946  0.72767857  0.66336363    -0.05800
Br430      Br  0.96748700  0.81940983  0.59952269    -0.02700
Br431      Br  0.77080320  0.76117672  0.70797007     0.00100
Br432      Br  0.93395229  0.78616147  0.77661251    -0.04200
C433        C  0.95484358  0.77493237  0.41100678    -0.11600
C434        C  0.95135989  0.75706744  0.38143613     0.03800
C435        C  0.92984368  0.75776964  0.33994092    -0.12200
C436        C  0.91116624  0.77604294  0.32751050     0.18700
C437        C  0.91434915  0.79382174  0.35755957    -0.09200
C438        C  0.93605995  0.79314668  0.39877906    -0.02200
H439        H  0.92704897  0.74384922  0.31781356     0.05200
C440        C  0.88746045  0.77599375  0.28433027     0.20700
H441        H  0.93823280  0.80690162  0.42159286     0.10400
C442        C  0.85085143  0.77805767  0.29086806    -0.15600
C443        C  0.82759992  0.77807274  0.25113456     0.03400
C444        C  0.84083122  0.77582111  0.20341519    -0.10900
C445        C  0.87758931  0.77384594  0.19705501    -0.00900
C446        C  0.90076397  0.77379535  0.23683071    -0.06100
H447        H  0.84029765  0.77976862  0.32722262     0.06400
H448        H  0.88841792  0.77201061  0.16089291     0.09800
Br449      Br  0.88996605  0.81949282  0.34360891    -0.05800
Br450      Br  0.97343072  0.73100177  0.39808417    -0.02700
Br451      Br  0.77847566  0.78250634  0.26454855     0.00100
Br452      Br  0.95043765  0.77110568  0.22427758    -0.04200
C453        C  0.67119540  0.27437153  0.21109880    -0.11600
C454        C  0.63565538  0.27995852  0.20141525     0.03800
C455        C  0.61097041  0.28037728  0.23927407    -0.12200
C456        C  0.62075466  0.27527115  0.28697872     0.18700
C457        C  0.65607712  0.26982387  0.29684973    -0.09200
C458        C  0.68085968  0.26938129  0.25913475    -0.02200
H459        H  0.58372862  0.28429227  0.23129967     0.05200
C460        C  0.59353687  0.27510208  0.32564211     0.20700
H461        H  0.70784931  0.26502400  0.26743722     0.10400
C462        C  0.58366525  0.25595141  0.34703893    -0.15600
C463        C  0.55948459  0.25534622  0.38541787     0.03400
C464        C  0.54398662  0.27402307  0.40203447    -0.10900
C465        C  0.55312720  0.29312289  0.37990625    -0.00900
C466        C  0.57781353  0.29378734  0.34204927    -0.06100
H467        H  0.59563392  0.24149877  0.33476411     0.06400
H468        H  0.54224885  0.30763644  0.39361352     0.09800
Br469      Br  0.67184274  0.26315912  0.36139927    -0.05800
Br470      Br  0.61799306  0.28549301  0.13712485    -0.02700
Br471      Br  0.55016894  0.22889513  0.41634490     0.00100
Br472      Br  0.59147000  0.32066854  0.31668959    -0.04200
C473        C  0.54603931  0.27506339  0.58132435    -0.11600
C474        C  0.55920668  0.29438540  0.59817134     0.03800
C475        C  0.58153026  0.29499434  0.63877309    -0.12200
C476        C  0.59096743  0.27650751  0.66330303     0.18700
C477        C  0.57680745  0.25723078  0.64748665    -0.09200
C478        C  0.55520428  0.25657728  0.60611233    -0.02200
H479        H  0.59184528  0.30993185  0.65101883     0.05200
C480        C  0.61518540  0.27773121  0.70563925     0.20700
H481        H  0.54557013  0.24159354  0.59322723     0.10400
C482        C  0.60314519  0.28675357  0.74877209    -0.15600
C483        C  0.62479865  0.28788596  0.79000146     0.03400
C484        C  0.65957574  0.27944508  0.78887814    -0.10900
C485        C  0.67187288  0.27116182  0.74458222    -0.00900
C486        C  0.65020546  0.27046534  0.70325377    -0.06100
H487        H  0.57649716  0.29287950  0.75043106     0.06400
H488        H  0.69844369  0.26502083  0.74192903     0.09800
Br489      Br  0.58516520  0.23159788  0.68235853    -0.05800
Br490      Br  0.54774505  0.32027225  0.56628714    -0.02700
Br491      Br  0.60421948  0.30147194  0.84546297     0.00100
Br492      Br  0.66984806  0.26003699  0.64383632    -0.04200
C493        C  0.96636206  0.22637595  0.41002989    -0.11600
C494        C  0.96042132  0.20861770  0.38082949     0.03800
C495        C  0.93945882  0.21028830  0.33911152    -0.12200
C496        C  0.92339019  0.22934318  0.32666075     0.18700
C497        C  0.92870805  0.24700097  0.35631092    -0.09200
C498        C  0.95026673  0.24545011  0.39749403    -0.02200
H499        H  0.93481734  0.19652774  0.31700689     0.05200
C500        C  0.89988716  0.23013578  0.28384318     0.20700
H501        H  0.95413311  0.25909402  0.42025638     0.10400
C502        C  0.86336645  0.22782723  0.29035109    -0.15600
C503        C  0.84035682  0.22758005  0.25044772     0.03400
C504        C  0.85393308  0.22986199  0.20285922    -0.10900
C505        C  0.89068809  0.23205269  0.19668487    -0.00900
C506        C  0.91358309  0.23216020  0.23661857    -0.06100
H507        H  0.85280023  0.22583476  0.32666956     0.06400
H508        H  0.90171704  0.23390123  0.16059513     0.09800
Br509      Br  0.90654225  0.27334990  0.34238843    -0.05800
Br510      Br  0.97759974  0.18142119  0.39854254    -0.02700
Br511      Br  0.79124566  0.22248253  0.26338898     0.00100
Br512      Br  0.96335644  0.23519418  0.22517496    -0.04200
C513        C  0.96627680  0.22754999  0.58991975    -0.11600
C514        C  0.94917878  0.24635293  0.60237101     0.03800
C515        C  0.92669309  0.24691172  0.64262429    -0.12200
C516        C  0.92072840  0.22887318  0.67081096     0.18700
C517        C  0.93826534  0.21012738  0.65886756    -0.09200
C518        C  0.96098639  0.20962317  0.61876387    -0.02200
H519        H  0.91313336  0.26135561  0.65134597     0.05200
C520        C  0.89382312  0.22958793  0.70968590     0.20700
H521        H  0.97334671  0.19497535  0.60884313     0.10400
C522        C  0.85817775  0.23173207  0.69655887    -0.15600
C523        C  0.83177268  0.23301408  0.73195865     0.03400
C524        C  0.84094445  0.23205868  0.78158959    -0.10900
C525        C  0.87661888  0.22960855  0.79463127    -0.00900
C526        C  0.90303631  0.22862845  0.75921357    -0.06100
H527        H  0.85088915  0.23240255  0.65848900     0.06400
H528        H  0.88413264  0.22920113  0.83264107     0.09800
Br529      Br  0.92981915  0.18449072  0.69379125    -0.05800
Br530      Br  0.95508521  0.27148024  0.56463342    -0.02700
Br531      Br  0.78366039  0.23512508  0.71039002     0.00100
Br532      Br  0.95132902  0.22718649  0.78026673    -0.04200
C533        C  0.35623321  0.27164472  0.79279549    -0.11600
C534        C  0.35379336  0.25643432  0.75549368     0.03800
C535        C  0.37752424  0.25692245  0.71652405    -0.12200
C536        C  0.40443251  0.27201797  0.71388141     0.18700
C537        C  0.40742893  0.28694687  0.75124200    -0.09200
C538        C  0.38353140  0.28666672  0.79008126    -0.02200
H539        H  0.37493726  0.24539784  0.68789238     0.05200
C540        C  0.42766581  0.27255065  0.67047226     0.20700
H541        H  0.38638837  0.29833115  0.81833199     0.10400
C542        C  0.42664326  0.29013424  0.63966088    -0.15600
C543        C  0.44648712  0.29079774  0.59684845     0.03400
C544        C  0.46720742  0.27344936  0.58349225    -0.10900
C545        C  0.46813737  0.25580422  0.61410557    -0.00900
C546        C  0.44911964  0.25537636  0.65771113    -0.06100
H547        H  0.41008535  0.30337095  0.64881054     0.06400
H548        H  0.48347626  0.24222963  0.60390402     0.09800
Br549      Br  0.44437236  0.30763551  0.75164907    -0.05800
Br550      Br  0.32039351  0.23371585  0.75604679    -0.02700
Br551      Br  0.44475744  0.31585755  0.55813841     0.00100
Br552      Br  0.45430166  0.23131421  0.69921259    -0.04200
C553        C  0.33646583  0.27042174  0.21148994    -0.11600
C554        C  0.32706551  0.26992711  0.26104273     0.03800
C555        C  0.35328505  0.27190170  0.29688372    -0.12200
C556        C  0.38907362  0.27441090  0.28433856     0.18700
C557        C  0.39834140  0.27527063  0.23477175    -0.09200
C558        C  0.37212213  0.27353137  0.19900410    -0.02200
H559        H  0.34576741  0.27126179  0.33484530     0.05200
C560        C  0.41625246  0.27433557  0.32352338     0.20700
H561        H  0.37985697  0.27380288  0.16109430     0.10400
C562        C  0.42136147  0.25582768  0.35034019    -0.15600
C563        C  0.44511503  0.25512639  0.38935906     0.03400
C564        C  0.46426459  0.27319753  0.40265595    -0.10900
C565        C  0.45981710  0.29164542  0.37521759    -0.00900
C566        C  0.43609906  0.29233352  0.33587668    -0.06100
H567        H  0.40649767  0.24185562  0.34108934     0.06400
H568        H  0.47393791  0.30574848  0.38544502     0.09800
Br569      Br  0.44659625  0.27724662  0.21391425    -0.05800
Br570      Br  0.27877581  0.26748866  0.28157825    -0.02700
Br571      Br  0.45040549  0.22908214  0.42359832     0.00100
Br572      Br  0.43029174  0.31846834  0.30201698    -0.04200
C573        C  0.17401811  0.22733501  0.77728903    -0.11600
C574        C  0.18232680  0.23119918  0.72796779     0.03800
C575        C  0.15559304  0.23075354  0.69281435    -0.12200
C576        C  0.12047493  0.22662163  0.70579872     0.18700
C577        C  0.11211015  0.22248803  0.75462133    -0.09200
C578        C  0.13877503  0.22275390  0.78982073    -0.02200
H579        H  0.16220080  0.23363547  0.65505470     0.05200
C580        C  0.09312963  0.22624357  0.66757310     0.20700
H581        H  0.13166332  0.22001053  0.82745240     0.10400
C582        C  0.08168176  0.20686794  0.64944212    -0.15600
C583        C  0.05808537  0.20594753  0.61039152     0.03400
C584        C  0.04497843  0.22460453  0.58980367    -0.10900
C585        C  0.05561997  0.24398392  0.60883098    -0.00900
C586        C  0.07984145  0.24491714  0.64720331    -0.06100
H587        H  0.09208516  0.19245291  0.66465925     0.06400
H588        H  0.04611406  0.25840005  0.59251967     0.09800
Br589      Br  0.06440754  0.21729092  0.77495449    -0.05800
Br590      Br  0.22955148  0.23627966  0.70562714    -0.02700
Br591      Br  0.04598975  0.17898366  0.58452856     0.00100
Br592      Br  0.09505705  0.27193237  0.66953321    -0.04200
C593        C  0.15481288  0.22338766  0.19915266    -0.11600
C594        C  0.11740507  0.22359670  0.19578605     0.03800
C595        C  0.09685505  0.22425790  0.23803439    -0.12200
C596        C  0.11255673  0.22478313  0.28410823     0.18700
C597        C  0.14965763  0.22455535  0.28776676    -0.09200
C598        C  0.17038021  0.22396652  0.24562320    -0.02200
H599        H  0.06830992  0.22438818  0.23495050     0.05200
C600        C  0.08967293  0.22475870  0.32780258     0.20700
H601        H  0.19887401  0.22395420  0.24930907     0.10400
C602        C  0.08887072  0.20688847  0.35762288    -0.15600
C603        C  0.06744117  0.20610919  0.39895048     0.03400
C604        C  0.04553943  0.22325177  0.41045213    -0.10900
C605        C  0.04611999  0.24109595  0.38039582    -0.00900
C606        C  0.06809832  0.24200531  0.33949390    -0.06100
H607        H  0.10520273  0.19350905  0.34880432     0.06400
H608        H  0.03017027  0.25459002  0.38957697     0.09800
Br609      Br  0.17321096  0.22566989  0.34950174    -0.05800
Br610      Br  0.09209498  0.22422444  0.13521323    -0.02700
Br611      Br  0.06912139  0.18120866  0.43832612     0.00100
Br612      Br  0.06928327  0.26752126  0.30235853    -0.04200
C613        C  0.84978276  0.16175417  0.98956294    -0.11600
C614        C  0.87956512  0.15653424  0.01800170     0.03800
C615        C  0.89010426  0.13556822  0.02203754    -0.12200
C616        C  0.87127459  0.11956487  0.99850063     0.18700
C617        C  0.84143228  0.12470619  0.97048524    -0.09200
C618        C  0.83118591  0.14566300  0.96574456    -0.02200
H619        H  0.91316807  0.13170182  0.04360822     0.05200
C620        C  0.88300349  0.09761720  0.00446735     0.20700
H621        H  0.80789522  0.14933118  0.94445758     0.10400
C622        C  0.87948068  0.08788058  0.05006122    -0.15600
C623        C  0.89357201  0.06792946  0.05852824     0.03400
C624        C  0.91122558  0.05740337  0.02091222    -0.10900
C625        C  0.91351724  0.06679458  0.97480880    -0.00900
C626        C  0.89983654  0.08681949  0.96643823    -0.06100
H627        H  0.86689491  0.09617114  0.07962495     0.06400
H628        H  0.92811783  0.05907641  0.94615926     0.09800
Br629      Br  0.81288773  0.10354287  0.94019667    -0.05800
Br630      Br  0.90772636  0.17731751  0.05040604    -0.02700
Br631      Br  0.89139550  0.05651875  0.12300496     0.00100
Br632      Br  0.90797430  0.09953534  0.90407917    -0.04200
C633        C  0.08463571  0.05484893  0.99761351    -0.11600
C634        C  0.07426730  0.06877168  0.96023863     0.03800
C635        C  0.09265054  0.08753369  0.95336014    -0.12200
C636        C  0.12151937  0.09254056  0.98294863     0.18700
C637        C  0.13372946  0.07790269  0.01740435    -0.09200
C638        C  0.11520054  0.05915673  0.02465705    -0.02200
H639        H  0.08334579  0.09871991  0.92653083     0.05200
C640        C  0.13543690  0.11407690  0.98171747     0.20700
H641        H  0.12345146  0.04850737  0.05323861     0.10400
C642        C  0.12348447  0.12831104  0.01661798    -0.15600
C643        C  0.13497607  0.14915298  0.01634429     0.03400
C644        C  0.15901993  0.15604976  0.98025197    -0.10900
C645        C  0.17056079  0.14160453  0.94501484    -0.00900
C646        C  0.15901691  0.12079137  0.94561382    -0.06100
H647        H  0.10482765  0.12316011  0.04406813     0.06400
H648        H  0.18919431  0.14636862  0.91720762     0.09800
Br649      Br  0.17443918  0.08350517  0.05681055    -0.05800
Br650      Br  0.03375224  0.06351467  0.91991281    -0.02700
Br651      Br  0.11542080  0.16716997  0.06519519     0.00100
Br652      Br  0.17674739  0.10191864  0.89738961    -0.04200
C653        C  0.15503646  0.84343373  0.98741241    -0.11600
C654        C  0.16913777  0.86019503  0.95953108     0.03800
C655        C  0.15682042  0.88061357  0.96666842    -0.12200
C656        C  0.13107521  0.88481139  0.00172866     0.18700
C657        C  0.11713758  0.86826250  0.02976625    -0.09200
C658        C  0.12921185  0.84782516  0.02260643    -0.02200
H659        H  0.16755290  0.89334176  0.94499140     0.05200
C660        C  0.11711206  0.90625591  0.00627501     0.20700
H661        H  0.11807906  0.83527165  0.04443265     0.10400
C662        C  0.09388374  0.91361038  0.97046115    -0.15600
C663        C  0.07642458  0.93265418  0.97632156     0.03400
C664        C  0.08196740  0.94450647  0.01868003    -0.10900
C665        C  0.10686418  0.93785426  0.05312991    -0.00900
C666        C  0.12472499  0.91886648  0.04692436    -0.06100
H667        H  0.08836724  0.90413966  0.93872261     0.06400
H668        H  0.11148205  0.94707539  0.08551025     0.09800
Br669      Br  0.08071301  0.87274862  0.07710123    -0.05800
Br670      Br  0.20679551  0.85678711  0.91349421    -0.02700
Br671      Br  0.04409371  0.94157768  0.92663025     0.00100
Br672      Br  0.15876976  0.91055335  0.09487974    -0.04200
C673        C  0.90814936  0.94578194  0.02436639    -0.11600
C674        C  0.88202510  0.93852946  0.05677458     0.03800
C675        C  0.86586346  0.91900315  0.04891711    -0.12200
C676        C  0.87553739  0.90654865  0.00909522     0.18700
C677        C  0.90052564  0.91424495  0.97565498    -0.09200
C678        C  0.91646592  0.93371898  0.98337181    -0.02200
H679        H  0.84653483  0.91320865  0.07472457     0.05200
C680        C  0.86068890  0.88519011  0.00390525     0.20700
H681        H  0.93692042  0.93901417  0.95863070     0.10400
C682        C  0.83509309  0.88133514  0.96822974    -0.15600
C683        C  0.82146249  0.86113017  0.96111393     0.03400
C684        C  0.83375762  0.84420336  0.99004659    -0.10900
C685        C  0.85923165  0.84828755  0.02607529    -0.00900
C686        C  0.87273562  0.86849088  0.03301726    -0.06100
H687        H  0.82561653  0.89416835  0.94586166     0.06400
H688        H  0.86909880  0.83564484  0.04868831     0.09800
Br689      Br  0.91584225  0.89797908  0.92111051    -0.05800
Br690      Br  0.86949677  0.95403423  0.11369042    -0.02700
Br691      Br  0.78479974  0.85830356  0.91321527     0.00100
Br692      Br  0.90851689  0.87238580  0.08160626    -0.04200
C693        C  0.58343172  0.44346767  0.01935385    -0.11600
C694        C  0.60234373  0.43480552  0.05852036     0.03800
C695        C  0.62202255  0.41657951  0.05148558    -0.12200
C696        C  0.62302504  0.40694574  0.00571602     0.18700
C697        C  0.60547506  0.41626194  0.96609607    -0.09200
C698        C  0.58582449  0.43442975  0.97317450    -0.02200
H699        H  0.63520191  0.40935538  0.08223539     0.05200
C700        C  0.63820229  0.38583812  0.00172837     0.20700
H701        H  0.57145030  0.44121165  0.94290269     0.10400
C702        C  0.61525062  0.36894658  0.99295954    -0.15600
C703        C  0.62775315  0.34841228  0.99299851     0.03400
C704        C  0.66350767  0.34462815  0.00322808    -0.10900
C705        C  0.68665171  0.36148015  0.01111965    -0.00900
C706        C  0.67431581  0.38207587  0.00988387    -0.06100
H707        H  0.58734777  0.37175122  0.98706888     0.06400
H708        H  0.71438556  0.35857956  0.01819689     0.09800
Br709      Br  0.60682098  0.40440823  0.90212537    -0.05800
Br710      Br  0.60009662  0.44659011  0.12242841    -0.02700
Br711      Br  0.59474284  0.32605966  0.98193463     0.00100
Br712      Br  0.70766507  0.40447102  0.01843653    -0.04200
C713        C  0.40503568  0.44609307  0.01597672    -0.11600
C714        C  0.37951434  0.44010858  0.05057648     0.03800
C715        C  0.36232674  0.42071181  0.04602462    -0.12200
C716        C  0.37075171  0.40705501  0.00773624     0.18700
C717        C  0.39406714  0.41393172  0.97110211    -0.09200
C718        C  0.41073402  0.43336290  0.97532371    -0.02200
H719        H  0.34402914  0.41568951  0.07402581     0.05200
C720        C  0.35868142  0.38495050  0.00935765     0.20700
H721        H  0.43033647  0.43789756  0.94856306     0.10400
C722        C  0.33727410  0.37701017  0.97198150    -0.15600
C723        C  0.32847254  0.35566974  0.97029516     0.03400
C724        C  0.34063850  0.34197375  0.00708714    -0.10900
C725        C  0.36123130  0.35007399  0.04507139    -0.00900
C726        C  0.37065476  0.37125315  0.04616048    -0.06100
H727        H  0.32780329  0.38742555  0.94364762     0.06400
H728        H  0.37053278  0.33977086  0.07374310     0.09800
Br729      Br  0.40753703  0.39645687  0.91762933    -0.05800
Br730      Br  0.36979309  0.45693298  0.10657384    -0.02700
Br731      Br  0.29837906  0.34640786  0.91839002     0.00100
Br732      Br  0.40159720  0.38033446  0.09732649    -0.04200
C733        C  0.33808465  0.65876702  0.00857626    -0.11600
C734        C  0.31595977  0.64149628  0.01859576     0.03800
C735        C  0.32933382  0.62117990  0.01564695    -0.12200
C736        C  0.36475259  0.61775155  0.00342786     0.18700
C737        C  0.38666335  0.63499109  0.99191936    -0.09200
C738        C  0.37308735  0.65535062  0.99411865    -0.02200
H739        H  0.31223173  0.60798078  0.02384841     0.05200
C740        C  0.37873877  0.59620838  0.00568946     0.20700
H741        H  0.39016378  0.66856856  0.98599347     0.10400
C742        C  0.39020294  0.58638489  0.96301260    -0.15600
C743        C  0.40646117  0.56675213  0.96511166     0.03400
C744        C  0.41069633  0.55659137  0.01022474    -0.10900
C745        C  0.39728923  0.56580642  0.05243055    -0.00900
C746        C  0.38173504  0.58560694  0.05055121    -0.06100
H747        H  0.38772070  0.59436697  0.92834590     0.06400
H748        H  0.40133226  0.55825771  0.08734030     0.09800
Br749      Br  0.43568479  0.63164092  0.97598605    -0.05800
Br750      Br  0.26699635  0.64477930  0.03484794    -0.02700
Br751      Br  0.42490964  0.55497720  0.90633743     0.00100
Br752      Br  0.36850641  0.59842462  0.11083061    -0.04200
C753        C  0.65756177  0.65588461  0.00651412    -0.11600
C754        C  0.63015287  0.64788754  0.03574927     0.03800
C755        C  0.62125785  0.62665216  0.03314168    -0.12200
C756        C  0.63938407  0.61315762  0.00173678     0.18700
C757        C  0.66648811  0.62116338  0.97205081    -0.09200
C758        C  0.67535377  0.64245540  0.97451330    -0.02200
H759        H  0.59973548  0.62066514  0.05517817     0.05200
C760        C  0.62747229  0.59119189  0.99839927     0.20700
H761        H  0.69667144  0.64846384  0.95214490     0.10400
C762        C  0.60643190  0.58530627  0.95879684    -0.15600
C763        C  0.58800245  0.56632028  0.95947071     0.03400
C764        C  0.59043685  0.55303170  0.00037738    -0.10900
C765        C  0.61393146  0.55805797  0.03800397    -0.00900
C766        C  0.63244414  0.57705525  0.03723233    -0.06100
H767        H  0.60259827  0.59608516  0.92871650     0.06400
H768        H  0.61597575  0.54788863  0.06951460     0.09800
Br769      Br  0.69253499  0.60344479  0.92890444    -0.05800
Br770      Br  0.60275556  0.66559101  0.07742822    -0.02700
Br771      Br  0.55721318  0.56004114  0.90596819     0.00100
Br772      Br  0.66256106  0.58366922  0.09112588    -0.04200
loop_ 
_geom_bond_atom_site_label_1 
_geom_bond_atom_site_label_2 
_geom_bond_distance 
_geom_bond_site_symmetry_2 
_ccdc_geom_bond_type 
N1            C6   1.352       .  A
N1            C5   1.352       .  A
N1           H33   1.039       .  S
N2            C9   1.350       .  A
N2           C10   1.349       .  A
N3            C8   1.352       .  A
N3            C7   1.351       .  A
N3           H34   1.041   1_554  S
N4           C11   1.347       .  A
N4           C12   1.349       .  A
C5           C13   1.388       .  A
C5           C21   1.417       .  A
C6           C22   1.415       .  A
C6           C14   1.388       .  A
C7           C15   1.389       .  A
C7           C24   1.413       .  A
C8           C23   1.412       .  A
C8           C16   1.386       .  A
C9           C21   1.411       .  A
C9           C17   1.386       .  A
C10          C24   1.409       .  A
C10          C18   1.385       .  A
C11          C19   1.387       .  A
C11          C22   1.409       .  A
C12          C20   1.384   1_554  A
C12          C23   1.406       .  A
C13          C14   1.374       .  A
C13          H25   1.083       .  S
C14          H26   1.082       .  S
C15          C16   1.370       .  A
C15          H27   1.082       .  S
C16          H28   1.082       .  S
C17          C18   1.376       .  A
C17          H29   1.082   1_554  S
C18          H30   1.082   1_554  S
C19          C20   1.374   1_554  A
C19          H31   1.082   1_554  S
C20          H32   1.082       .  S
C21         C713   1.485       .  S
C22         C693   1.475       .  S
C23         C764   1.481       .  S
C24         C744   1.477       .  S
N35          C40   1.352   1_655  A
N35          C39   1.351       .  A
N35          H67   1.038       .  S
N36          C43   1.350   1_545  A
N36          C44   1.349       .  A
N37          C42   1.350   1_655  A
N37          C41   1.350       .  A
N37          H68   1.039       .  S
N38          C45   1.346   1_545  A
N38          C46   1.348       .  A
C39          C47   1.387       .  A
C39          C55   1.413       .  A
C40          C56   1.413       .  A
C40          C48   1.387       .  A
C41          C49   1.388       .  A
C41          C58   1.411       .  A
C42          C57   1.410       .  A
C42          C50   1.386       .  A
C43          C55   1.412       .  A
C43          C51   1.386       .  A
C44          C58   1.411       .  A
C44          C52   1.385       .  A
C45          C53   1.386   1_554  A
C45          C56   1.407       .  A
C46          C54   1.385   1_554  A
C46          C57   1.406       .  A
C47          C48   1.375   1_655  A
C47          H59   1.083       .  S
C48          H60   1.083       .  S
C49          C50   1.373   1_655  A
C49          H61   1.082       .  S
C50          H62   1.083       .  S
C51          C52   1.382   1_565  A
C51          H63   1.082       .  S
C52          H64   1.082   1_554  S
C53          C54   1.378   1_565  A
C53          H65   1.082       .  S
C54          H66   1.082       .  S
C55         C673   1.487       .  S
C56         C664   1.477       .  S
C57         C633   1.482   1_554  S
C58         C624   1.481       .  S
O69         Mg71   2.137   1_554  S
O69         Mg77   2.133       .  S
O69         C104   1.240       .  S
C70         H109   1.081       .  S
C70          O83   1.236       .  S
C70         O107   1.269       .  A
Mg71        O100   2.136       .  S
Mg71        O115   2.324       .  S
Mg71        O111   2.269       .  S
Mg71         O82   2.307       .  S
O72        Mg114   2.145       .  S
O72         Mg97   2.140       .  S
O72          C93   1.239       .  S
O73         C104   1.273       .  A
O73         Mg97   2.304       .  S
C74         C573   1.483       .  S
C74          O76   1.271       .  A
C74          O88   1.275       .  A
O75         C103   1.273       .  A
O75         Mg77   2.303   1_556  S
O76        Mg108   2.267       .  S
Mg77         O83   2.122       .  S
Mg77         O91   2.243       .  S
Mg77         O79   2.300       .  S
C78         C644   1.483       .  S
C78         O116   1.271       .  A
C78          O84   1.275   1_556  A
O79          C86   1.274       .  A
H80          C93   1.081       .  S
C81         H106   1.081       .  S
C81          O95   1.238       .  S
C81          O96   1.273       .  A
O82         C105   1.273       .  A
O83         Mg97   2.135       .  S
O84        Mg114   2.308       .  S
C85         C593   1.491       .  S
C85          O98   1.274       .  A
C85          O90   1.280       .  A
C86         C553   1.484       .  S
C86         O113   1.276       .  A
Mg87         O94   2.135       .  S
Mg87         O95   2.139       .  S
Mg87         O88   2.307       .  S
Mg87         O89   2.304       .  S
Mg87        O116   2.246       .  S
O89          C93   1.273   1_556  A
O90         Mg97   2.329       .  S
O91         C110   1.270       .  A
O92         C112   1.276       .  A
O92        Mg108   2.319       .  S
O94        Mg108   2.139       .  S
O94         C105   1.239       .  S
O95        Mg114   2.146   1_556  S
O96        Mg108   2.310       .  S
Mg97        O113   2.295       .  S
O98        Mg114   2.271       .  S
H99         C104   1.081       .  S
O100       Mg108   2.123       .  S
O100        C103   1.239       .  S
H101        C103   1.081       .  S
H102        C105   1.081       .  S
O107       Mg114   2.291       .  S
C110        C724   1.476       .  S
C110        O115   1.276   1_554  A
O111        C112   1.274       .  A
C112        C533   1.491       .  S
O117       Mg119   2.138   1_556  S
O117       Mg125   2.140       .  S
O117        C152   1.238       .  S
C118        H157   1.081       .  S
C118        O131   1.236       .  S
C118        O155   1.269       .  A
Mg119       O148   2.148       .  S
Mg119       O163   2.307       .  S
Mg119       O159   2.262       .  S
Mg119       O130   2.294       .  S
O120       Mg162   2.147       .  S
O120       Mg145   2.134       .  S
O120        C141   1.240       .  S
O121        C152   1.272       .  A
O121       Mg145   2.306       .  S
C122        C453   1.486       .  S
C122        O124   1.274       .  A
C122        O136   1.276       .  A
O123        C151   1.273   1_556  A
O123       Mg125   2.299       .  S
O124       Mg156   2.274       .  S
Mg125       O131   2.123       .  S
Mg125       O139   2.255       .  S
Mg125       O127   2.304       .  S
C126        C704   1.458       .  S
C126        O164   1.269       .  A
C126        O132   1.271   1_554  A
O127        C134   1.276       .  A
H128        C141   1.081       .  S
C129        H154   1.081       .  S
C129        O143   1.238       .  S
C129        O144   1.272       .  A
O130        C153   1.270       .  A
O131       Mg145   2.139       .  S
O132       Mg162   2.284       .  S
C133        C484   1.498       .  S
C133        O146   1.270       .  A
C133        O138   1.280       .  A
C134        C524   1.476       .  S
C134        O161   1.274       .  A
Mg135       O142   2.116       .  S
Mg135       O143   2.143       .  S
Mg135       O136   2.314       .  S
Mg135       O137   2.302   1_554  S
Mg135       O164   2.236       .  S
O137        C141   1.273       .  A
O138       Mg145   2.339       .  S
O139        C158   1.271       .  A
O140        C160   1.277       .  A
O140       Mg156   2.321       .  S
O142       Mg156   2.137       .  S
O142        C153   1.237       .  S
O143       Mg162   2.139   1_554  S
O144       Mg156   2.305       .  S
Mg145       O161   2.269       .  S
O146       Mg162   2.254       .  S
H147        C152   1.081       .  S
O148       Mg156   2.132       .  S
O148        C151   1.239       .  S
H149        C151   1.081       .  S
H150        C153   1.081       .  S
O155       Mg162   2.289       .  S
C158        C613   1.479       .  S
C158        O163   1.275   1_556  A
O159        C160   1.274       .  A
C160        C504   1.484       .  S
O165       Mg167   2.140   1_554  S
O165       Mg173   2.134       .  S
O165        C200   1.238       .  S
C166        H205   1.081       .  S
C166        O179   1.238       .  S
C166        O203   1.271       .  A
Mg167       O196   2.138       .  S
Mg167       O211   2.307       .  S
Mg167       O207   2.257       .  S
Mg167       O178   2.300       .  S
O168       Mg210   2.148       .  S
O168       Mg193   2.147       .  S
O168        C189   1.240       .  S
O169        C200   1.272       .  A
O169       Mg193   2.305       .  S
C170        C424   1.488       .  S
C170        O172   1.273       .  A
C170        O184   1.280       .  A
O171        C199   1.274   1_554  A
O171       Mg173   2.310       .  S
O172       Mg204   2.271       .  S
Mg173       O179   2.126       .  S
Mg173       O187   2.256       .  S
Mg173       O175   2.315       .  S
C174        C684   1.487       .  S
C174        O212   1.272       .  A
C174        O180   1.277   1_556  A
O175        C182   1.277       .  A
H176        C189   1.081       .  S
C177        H202   1.081       .  S
C177        O191   1.237       .  S
C177        O192   1.271       .  A
O178        C201   1.272       .  A
O179       Mg193   2.142       .  S
O180       Mg210   2.311       .  S
C181        C444   1.491       .  S
C181        O194   1.275       .  A
C181        O186   1.279       .  A
C182        C393   1.490       .  S
C182        O209   1.276       .  A
Mg183       O190   2.132       .  S
Mg183       O191   2.141       .  S
Mg183       O184   2.334       .  S
Mg183       O185   2.306       .  S
Mg183       O212   2.268       .  S
O185        C189   1.274   1_556  A
O186       Mg193   2.332       .  S
O187        C206   1.270       .  A
O188        C208   1.277       .  A
O188       Mg204   2.317       .  S
O190       Mg204   2.141       .  S
O190        C201   1.238       .  S
O191       Mg210   2.142   1_556  S
O192       Mg204   2.302       .  S
Mg193       O209   2.294       .  S
O194       Mg210   2.275       .  S
H195        C200   1.081       .  S
O196       Mg204   2.141       .  S
O196        C199   1.239       .  S
H197        C199   1.081       .  S
H198        C201   1.081       .  S
O203       Mg210   2.295       .  S
C206        C753   1.469       .  S
C206        O211   1.274   1_554  A
O207        C208   1.270       .  A
C208        C384   1.488       .  S
O213       Mg215   2.134   1_556  S
O213       Mg221   2.140       .  S
O213        C248   1.238       .  S
C214        H253   1.081       .  S
C214        O227   1.237       .  S
C214        O251   1.270       .  A
Mg215       O244   2.142       .  S
Mg215       O259   2.298       .  S
Mg215       O255   2.262       .  S
Mg215       O226   2.296       .  S
O216       Mg258   2.146       .  S
O216       Mg241   2.129       .  S
O216        C237   1.238       .  S
O217        C248   1.272       .  A
O217       Mg241   2.303       .  S
C218        C293   1.488       .  S
C218        O220   1.273       .  A
C218        O232   1.277       .  A
O219        C247   1.273   1_556  A
O219       Mg221   2.302       .  S
O220       Mg252   2.268       .  S
Mg221       O227   2.129       .  S
Mg221       O235   2.264       .  S
Mg221       O223   2.301       .  S
C222        C733   1.467       .  S
C222        O260   1.272       .  A
C222        O228   1.273   1_554  A
O223        C230   1.274       .  A
H224        C237   1.081       .  S
C225        H250   1.081       .  S
C225        O239   1.238       .  S
C225        O240   1.272       .  A
O226        C249   1.271       .  A
O227       Mg241   2.145       .  S
O228       Mg258   2.293       .  S
C229        C324   1.493       .  S
C229        O242   1.273       .  A
C229        O234   1.278       .  A
C230        C364   1.493       .  S
C230        O257   1.275       .  A
Mg231       O238   2.127       .  S
Mg231       O239   2.150       .  S
Mg231       O232   2.315       .  S
Mg231       O233   2.297       .  S
Mg231       O260   2.255       .  S
O233        C237   1.272   1_554  A
O234       Mg241   2.329       .  S
O235        C254   1.271       .  A
O236        C256   1.278       .  A
O236       Mg252   2.326       .  S
O238       Mg252   2.140       .  S
O238        C249   1.237       .  S
O239       Mg258   2.141   1_554  S
O240       Mg252   2.303       .  S
Mg241       O257   2.275       .  S
O242       Mg258   2.262       .  S
H243        C248   1.081       .  S
O244       Mg252   2.133       .  S
O244        C247   1.240       .  S
H245        C247   1.081       .  S
H246        C249   1.081       .  S
O251       Mg258   2.294       .  S
C254        C653   1.482       .  S
C254        O259   1.275   1_556  A
O255        C256   1.272       .  A
C256        C333   1.488       .  S
C261        C262   1.415   1_455  A
C261        C266   1.402       .  A
C261        C604   1.484       .  S
C262        C263   1.404       .  A
C262        C493   1.480       .  S
C263        C264   1.403       .  A
C263        H268   1.085       .  S
C264        C265   1.409   1_655  A
C264        C513   1.480       .  S
C265        C266   1.401       .  A
C265        C584   1.475       .  S
C266        H267   1.085       .  S
C269        C270   1.416   1_655  A
C269        C274   1.406       .  A
C269        C433   1.485       .  S
C270        C271   1.402       .  A
C270        C344   1.487       .  S
C271        C272   1.403       .  A
C271        H276   1.085       .  S
C272        C273   1.414   1_455  A
C272        C353   1.483       .  S
C273        C274   1.406       .  A
C273        C413   1.485       .  S
C274        H275   1.085       .  S
C277        C278   1.412       .  A
C277        C282   1.402       .  A
C277        C404   1.480       .  S
C278        C279   1.403       .  A
C278        C304   1.478       .  S
C279        C280   1.403       .  A
C279        H284   1.085       .  S
C280        C281   1.412       .  A
C280        C313   1.479       .  S
C281        C282   1.402       .  A
C281        C373   1.481       .  S
C282        H283   1.085       .  S
C285        C286   1.414       .  A
C285        C290   1.404       .  A
C285        C464   1.477       .  S
C286        C287   1.407       .  A
C286        C564   1.490       .  S
C287        C288   1.408       .  A
C287        H292   1.084       .  S
C288        C289   1.413       .  A
C288        C544   1.483       .  S
C289        C290   1.401       .  A
C289        C473   1.485       .  S
C290        H291   1.085       .  S
C293        C294   1.416       .  A
C293        C298   1.408       .  A
C294        C295   1.402       .  A
C294       Br310   1.922       .  S
C295        C296   1.403       .  A
C295        H299   1.084       .  S
C296        C297   1.406       .  A
C296        C300   1.482       .  S
C297        C298   1.399       .  A
C297       Br309   1.919       .  S
C298        H301   1.083       .  S
C300        C302   1.404       .  A
C300        C306   1.410       .  A
C302        C303   1.400       .  A
C302        H307   1.083       .  S
C303        C304   1.407       .  A
C303       Br311   1.917       .  S
C304        C305   1.402       .  A
C305        C306   1.400       .  A
C305        H308   1.082       .  S
C306       Br312   1.919       .  S
C313        C314   1.408       .  A
C313        C318   1.403       .  A
C314        C315   1.399       .  A
C314       Br330   1.917       .  S
C315        C316   1.402       .  A
C315        H319   1.083       .  S
C316        C317   1.409       .  A
C316        C320   1.479       .  S
C317        C318   1.401       .  A
C317       Br329   1.918       .  S
C318        H321   1.083       .  S
C320        C322   1.401       .  A
C320        C326   1.404       .  A
C322        C323   1.402       .  A
C322        H327   1.084       .  S
C323        C324   1.418       .  A
C323       Br331   1.922       .  S
C324        C325   1.412       .  A
C325        C326   1.399       .  A
C325        H328   1.083       .  S
C326       Br332   1.920       .  S
C333        C334   1.417       .  A
C333        C338   1.406       .  A
C334        C335   1.399       .  A
C334       Br350   1.922       .  S
C335        C336   1.401       .  A
C335        H339   1.084       .  S
C336        C337   1.412       .  A
C336        C340   1.487       .  S
C337        C338   1.402       .  A
C337       Br349   1.920       .  S
C338        H341   1.083       .  S
C340        C342   1.402       .  A
C340        C346   1.413       .  A
C342        C343   1.398       .  A
C342        H347   1.083       .  S
C343        C344   1.413       .  A
C343       Br351   1.922       .  S
C344        C345   1.403       .  A
C345        C346   1.402       .  A
C345        H348   1.083       .  S
C346       Br352   1.919       .  S
C353        C354   1.413       .  A
C353        C358   1.404       .  A
C354        C355   1.397       .  A
C354       Br370   1.920       .  S
C355        C356   1.400       .  A
C355        H359   1.084       .  S
C356        C357   1.408       .  A
C356        C360   1.477       .  S
C357        C358   1.400       .  A
C357       Br369   1.917       .  S
C358        H361   1.083       .  S
C360        C362   1.398       .  A
C360        C366   1.405       .  A
C362        C363   1.399       .  A
C362        H367   1.084       .  S
C363        C364   1.422       .  A
C363       Br371   1.924       .  S
C364        C365   1.410       .  A
C365        C366   1.400       .  A
C365        H368   1.083       .  S
C366       Br372   1.919       .  S
C373        C374   1.409       .  A
C373        C378   1.402       .  A
C374        C375   1.398       .  A
C374       Br390   1.919       .  S
C375        C376   1.403       .  A
C375        H379   1.083       .  S
C376        C377   1.411       .  A
C376        C380   1.482       .  S
C377        C378   1.400       .  A
C377       Br389   1.919       .  S
C378        H381   1.083       .  S
C380        C382   1.400       .  A
C380        C386   1.409       .  A
C382        C383   1.398       .  A
C382        H387   1.084       .  S
C383        C384   1.418       .  A
C383       Br391   1.922       .  S
C384        C385   1.408       .  A
C385        C386   1.400       .  A
C385        H388   1.083       .  S
C386       Br392   1.919       .  S
C393        C394   1.413       .  A
C393        C398   1.409       .  A
C394        C395   1.403       .  A
C394       Br410   1.918       .  S
C395        C396   1.403       .  A
C395        H399   1.084       .  S
C396        C397   1.407       .  A
C396        C400   1.484       .  S
C397        C398   1.402       .  A
C397       Br409   1.919       .  S
C398        H401   1.083       .  S
C400        C402   1.404       .  A
C400        C406   1.410       .  A
C402        C403   1.400       .  A
C402        H407   1.083       .  S
C403        C404   1.408       .  A
C403       Br411   1.918       .  S
C404        C405   1.403       .  A
C405        C406   1.402       .  A
C405        H408   1.083       .  S
C406       Br412   1.918       .  S
C413        C414   1.408       .  A
C413        C418   1.404       .  A
C414        C415   1.401       .  A
C414       Br430   1.915       .  S
C415        C416   1.404       .  A
C415        H419   1.083       .  S
C416        C417   1.411       .  A
C416        C420   1.488       .  S
C417        C418   1.402       .  A
C417       Br429   1.919       .  S
C418        H421   1.084       .  S
C420        C422   1.405       .  A
C420        C426   1.408       .  A
C422        C423   1.403       .  A
C422        H427   1.084       .  S
C423        C424   1.415       .  A
C423       Br431   1.921       .  S
C424        C425   1.407       .  A
C425        C426   1.401       .  A
C425        H428   1.083       .  S
C426       Br432   1.919       .  S
C433        C434   1.408       .  A
C433        C438   1.403       .  A
C434        C435   1.402       .  A
C434       Br450   1.916       .  S
C435        C436   1.406       .  A
C435        H439   1.083       .  S
C436        C437   1.411       .  A
C436        C440   1.488       .  S
C437        C438   1.400       .  A
C437       Br449   1.919       .  S
C438        H441   1.084       .  S
C440        C442   1.404       .  A
C440        C446   1.409       .  A
C442        C443   1.403       .  A
C442        H447   1.083       .  S
C443        C444   1.414       .  A
C443       Br451   1.918       .  S
C444        C445   1.409       .  A
C445        C446   1.402       .  A
C445        H448   1.083       .  S
C446       Br452   1.920       .  S
C453        C454   1.417       .  A
C453        C458   1.406       .  A
C454        C455   1.400       .  A
C454       Br470   1.922       .  S
C455        C456   1.401       .  A
C455        H459   1.084       .  S
C456        C457   1.408       .  A
C456        C460   1.482       .  S
C457        C458   1.400       .  A
C457       Br469   1.919       .  S
C458        H461   1.083       .  S
C460        C462   1.403       .  A
C460        C466   1.409       .  A
C462        C463   1.399       .  A
C462        H467   1.083       .  S
C463        C464   1.407       .  A
C463       Br471   1.918       .  S
C464        C465   1.402       .  A
C465        C466   1.400       .  A
C465        H468   1.083       .  S
C466       Br472   1.918       .  S
C473        C474   1.408       .  A
C473        C478   1.404       .  A
C474        C475   1.401       .  A
C474       Br490   1.917       .  S
C475        C476   1.403       .  A
C475        H479   1.083       .  S
C476        C477   1.410       .  A
C476        C480   1.484       .  S
C477        C478   1.402       .  A
C477       Br489   1.919       .  S
C478        H481   1.083       .  S
C480        C482   1.398       .  A
C480        C486   1.407       .  A
C482        C483   1.401       .  A
C482        H487   1.084       .  S
C483        C484   1.424       .  A
C483       Br491   1.924       .  S
C484        C485   1.410       .  A
C485        C486   1.402       .  A
C485        H488   1.083       .  S
C486       Br492   1.919       .  S
C493        C494   1.409       .  A
C493        C498   1.404       .  A
C494        C495   1.399       .  A
C494       Br510   1.915       .  S
C495        C496   1.401       .  A
C495        H499   1.084       .  S
C496        C497   1.407       .  A
C496        C500   1.476       .  S
C497        C498   1.399       .  A
C497       Br509   1.917       .  S
C498        H501   1.084       .  S
C500        C502   1.402       .  A
C500        C506   1.405       .  A
C502        C503   1.401       .  A
C502        H507   1.084       .  S
C503        C504   1.414       .  A
C503       Br511   1.920       .  S
C504        C505   1.408       .  A
C505        C506   1.399       .  A
C505        H508   1.083       .  S
C506       Br512   1.920       .  S
C513        C514   1.408       .  A
C513        C518   1.403       .  A
C514        C515   1.398       .  A
C514       Br530   1.918       .  S
C515        C516   1.403       .  A
C515        H519   1.084       .  S
C516        C517   1.409       .  A
C516        C520   1.479       .  S
C517        C518   1.400       .  A
C517       Br529   1.919       .  S
C518        H521   1.082       .  S
C520        C522   1.403       .  A
C520        C526   1.407       .  A
C522        C523   1.399       .  A
C522        H527   1.084       .  S
C523        C524   1.410       .  A
C523       Br531   1.920       .  S
C524        C525   1.406       .  A
C525        C526   1.399       .  A
C525        H528   1.084       .  S
C526       Br532   1.919       .  S
C533        C534   1.418       .  A
C533        C538   1.409       .  A
C534        C535   1.400       .  A
C534       Br550   1.920       .  S
C535        C536   1.401       .  A
C535        H539   1.084       .  S
C536        C537   1.408       .  A
C536        C540   1.484       .  S
C537        C538   1.401       .  A
C537       Br549   1.920       .  S
C538        H541   1.083       .  S
C540        C542   1.404       .  A
C540        C546   1.411       .  A
C542        C543   1.398       .  A
C542        H547   1.083       .  S
C543        C544   1.408       .  A
C543       Br551   1.918       .  S
C544        C545   1.403       .  A
C545        C546   1.400       .  A
C545        H548   1.082       .  S
C546       Br552   1.919       .  S
C553        C554   1.410       .  A
C553        C558   1.406       .  A
C554        C555   1.404       .  A
C554       Br570   1.920       .  S
C555        C556   1.407       .  A
C555        H559   1.083       .  S
C556        C557   1.409       .  A
C556        C560   1.490       .  S
C557        C558   1.401       .  A
C557       Br569   1.919       .  S
C558        H561   1.084       .  S
C560        C562   1.403       .  A
C560        C566   1.412       .  A
C562        C563   1.400       .  A
C562        H567   1.084       .  S
C563        C564   1.409       .  A
C563       Br571   1.917       .  S
C564        C565   1.406       .  A
C565        C566   1.406       .  A
C565        H568   1.083       .  S
C566       Br572   1.919       .  S
C573        C574   1.414       .  A
C573        C578   1.408       .  A
C574        C575   1.399       .  A
C574       Br590   1.917       .  S
C575        C576   1.401       .  A
C575        H579   1.084       .  S
C576        C577   1.404       .  A
C576        C580   1.475       .  S
C577        C578   1.398       .  A
C577       Br589   1.919       .  S
C578        H581   1.083       .  S
C580        C582   1.402       .  A
C580        C586   1.408       .  A
C582        C583   1.398       .  A
C582        H587   1.083       .  S
C583        C584   1.407       .  A
C583       Br591   1.918       .  S
C584        C585   1.402       .  A
C585        C586   1.399       .  A
C585        H588   1.084       .  S
C586       Br592   1.918       .  S
C593        C594   1.419       .  A
C593        C598   1.408       .  A
C594        C595   1.400       .  A
C594       Br610   1.922       .  S
C595        C596   1.400       .  A
C595        H599   1.084       .  S
C596        C597   1.408       .  A
C596        C600   1.482       .  S
C597        C598   1.401       .  A
C597       Br609   1.919       .  S
C598        H601   1.083       .  S
C600        C602   1.402       .  A
C600        C606   1.410       .  A
C602        C603   1.398       .  A
C602        H607   1.083       .  S
C603        C604   1.411       .  A
C603       Br611   1.920       .  S
C604        C605   1.404       .  A
C605        C606   1.401       .  A
C605        H608   1.083       .  S
C606       Br612   1.918       .  S
C613        C614   1.411   1_556  A
C613        C618   1.407       .  A
C614        C615   1.400       .  A
C614       Br630   1.920       .  S
C615        C616   1.403   1_554  A
C615        H619   1.084       .  S
C616        C617   1.406       .  A
C616        C620   1.478   1_556  S
C617        C618   1.398       .  A
C617       Br629   1.919       .  S
C618        H621   1.084       .  S
C620        C622   1.404       .  A
C620        C626   1.409   1_554  A
C622        C623   1.399       .  A
C622        H627   1.083       .  S
C623        C624   1.406       .  A
C623       Br631   1.916       .  S
C624        C625   1.403   1_554  A
C625        C626   1.397       .  A
C625        H628   1.084       .  S
C626       Br632   1.919       .  S
C633        C634   1.412       .  A
C633        C638   1.402   1_556  A
C634        C635   1.395       .  A
C634       Br650   1.922       .  S
C635        C636   1.399       .  A
C635        H639   1.084       .  S
C636        C637   1.406   1_556  A
C636        C640   1.470       .  S
C637        C638   1.398       .  A
C637       Br649   1.917       .  S
C638        H641   1.083       .  S
C640        C642   1.400   1_556  A
C640        C646   1.401       .  A
C642        C643   1.397       .  A
C642        H647   1.084       .  S
C643        C644   1.416   1_554  A
C643       Br651   1.922       .  S
C644        C645   1.411       .  A
C645        C646   1.396       .  A
C645        H648   1.083       .  S
C646       Br652   1.918       .  S
C653        C654   1.417       .  A
C653        C658   1.406   1_556  A
C654        C655   1.399       .  A
C654       Br670   1.921       .  S
C655        C656   1.399   1_556  A
C655        H659   1.084       .  S
C656        C657   1.407       .  A
C656        C660   1.473       .  S
C657        C658   1.397       .  A
C657       Br669   1.920       .  S
C658        H661   1.083       .  S
C660        C662   1.400   1_554  A
C660        C666   1.409       .  A
C662        C663   1.394       .  A
C662        H667   1.084       .  S
C663        C664   1.407   1_556  A
C663       Br671   1.920       .  S
C664        C665   1.401       .  A
C665        C666   1.400       .  A
C665        H668   1.083       .  S
C666       Br672   1.918       .  S
C673        C674   1.408       .  A
C673        C678   1.404   1_554  A
C674        C675   1.403       .  A
C674       Br690   1.916       .  S
C675        C676   1.405       .  A
C675        H679   1.083       .  S
C676        C677   1.406   1_554  A
C676        C680   1.479       .  S
C677        C678   1.396       .  A
C677       Br689   1.919       .  S
C678        H681   1.084       .  S
C680        C682   1.401   1_554  A
C680        C686   1.407       .  A
C682        C683   1.401       .  A
C682        H687   1.084       .  S
C683        C684   1.418       .  A
C683       Br691   1.922       .  S
C684        C685   1.407   1_556  A
C685        C686   1.399       .  A
C685        H688   1.083       .  S
C686       Br692   1.919       .  S
C693        C694   1.405       .  A
C693        C698   1.400   1_554  A
C694        C695   1.396       .  A
C694       Br710   1.917       .  S
C695        C696   1.404       .  A
C695        H699   1.084       .  S
C696        C697   1.406   1_554  A
C696        C700   1.469       .  S
C697        C698   1.393       .  A
C697       Br709   1.919       .  S
C698        H701   1.084       .  S
C700        C702   1.404   1_554  A
C700        C706   1.406       .  A
C702        C703   1.394       .  A
C702        H707   1.084       .  S
C703        C704   1.404   1_556  A
C703       Br711   1.918       .  S
C704        C705   1.402       .  A
C705        C706   1.395       .  A
C705        H708   1.084       .  S
C706       Br712   1.919       .  S
C713        C714   1.408       .  A
C713        C718   1.402   1_554  A
C714        C715   1.402       .  A
C714       Br730   1.918       .  S
C715        C716   1.407       .  A
C715        H719   1.083       .  S
C716        C717   1.408   1_554  A
C716        C720   1.481       .  S
C717        C718   1.394       .  A
C717       Br729   1.919       .  S
C718        H721   1.084       .  S
C720        C722   1.404   1_554  A
C720        C726   1.410       .  A
C722        C723   1.401       .  A
C722        H727   1.083       .  S
C723        C724   1.412   1_556  A
C723       Br731   1.920       .  S
C724        C725   1.403       .  A
C725        C726   1.396       .  A
C725        H728   1.084       .  S
C726       Br732   1.921       .  S
C733        C734   1.408       .  A
C733        C738   1.402   1_554  A
C734        C735   1.395       .  A
C734       Br750   1.919       .  S
C735        C736   1.401       .  A
C735        H739   1.084       .  S
C736        C737   1.410   1_554  A
C736        C740   1.475       .  S
C737        C738   1.399       .  A
C737       Br749   1.920       .  S
C738        H741   1.084       .  S
C740        C742   1.403   1_554  A
C740        C746   1.410       .  A
C742        C743   1.398       .  A
C742        H747   1.083       .  S
C743        C744   1.407   1_556  A
C743       Br751   1.919       .  S
C744        C745   1.400       .  A
C745        C746   1.395       .  A
C745        H748   1.084       .  S
C746       Br752   1.919       .  S
C753        C754   1.407       .  A
C753        C758   1.405   1_554  A
C754        C755   1.397       .  A
C754       Br770   1.919       .  S
C755        C756   1.403       .  A
C755        H759   1.084       .  S
C756        C757   1.406   1_554  A
C756        C760   1.474   1_554  S
C757        C758   1.400       .  A
C757       Br769   1.918       .  S
C758        H761   1.084       .  S
C760        C762   1.401       .  A
C760        C766   1.408   1_556  A
C762        C763   1.396       .  A
C762        H767   1.084       .  S
C763        C764   1.409   1_556  A
C763       Br771   1.919       .  S
C764        C765   1.402       .  A
C765        C766   1.398       .  A
C765        H768   1.083       .  S
C766       Br772   1.917       .  S
