geometry optimzed in LAMMPS
_audit_creation_date              2020-11-30 
_audit_creation_method            'lammps2cif' 
_symmetry_space_group_name_H-M    'P1' 
_symmetry_Int_Tables_number       1 
_symmetry_cell_setting            triclinic 
loop_ 
_symmetry_equiv_pos_as_xyz 
  x,y,z 
_cell_length_a                    41.92486972251087 
_cell_length_b                    42.14424282367094 
_cell_length_c                    39.43102356929173 
_cell_angle_alpha                 90.52256551237362 
_cell_angle_beta                  90.43296336598158 
_cell_angle_gamma                 90.64347600389137 
loop_ 
_atom_site_label 
_atom_site_type_symbol 
_atom_site_fract_x 
_atom_site_fract_y 
_atom_site_fract_z 
_atom_site_charge 
O1          O  0.41296909  0.49981331  0.43948672    -0.74840
O2          O  0.40932490  0.04916944  0.46360272    -0.53740
C3          C  0.39822220  0.02580166  0.44564177     0.78890
O4          O  0.48900413  0.42612553  0.56296571    -0.59440
O5          O  0.03556388  0.41594529  0.53579500    -0.52470
C6          C  0.01309851  0.40862491  0.55657013     0.70910
O7          O  0.41270278  0.49868005  0.55786016    -0.73990
O8          O  0.40887033  0.04839665  0.53571916    -0.54560
C9          C  0.39771033  0.02459442  0.55242253     0.76910
O10         O  0.48841879  0.42639763  0.43446746    -0.59140
O11         O  0.03500059  0.41620954  0.46221408    -0.52260
C12         C  0.01248546  0.40884900  0.44095698     0.73500
Zr13       Zr  0.46498877  0.47659458  0.44936990     2.54710
O14         O  0.42407967  0.43535212  0.44443892    -0.79700
O15         O  0.46773076  0.48233042  0.38806724    -0.93120
Zr16       Zr  0.46496487  0.47614856  0.54908210     2.64680
O17         O  0.42330633  0.43565212  0.55371440    -0.98080
O18         O  0.46813452  0.48227514  0.61048529    -0.80140
O19         O  0.44355420  0.49845374  0.49935458    -0.83490
O20         O  0.48597606  0.45340569  0.49908626    -2.18200
O21         O  0.08144637  0.01321718  0.43495738    -0.66880
O22         O  0.08953479  0.46693319  0.46297689    -0.51450
C23         C  0.09775891  0.48842698  0.44148607     0.71880
O24         O  0.01123914  0.09080881  0.56378868    -0.59790
O25         O  0.46386192  0.09989098  0.53718775    -0.51770
C26         C  0.48689865  0.10806132  0.55738190     0.73690
O27         O  0.08153192  0.01315680  0.56625126    -0.71190
O28         O  0.08973765  0.46702205  0.53721084    -0.49860
C29         C  0.09808601  0.48856645  0.55917397     0.75070
O30         O  0.01156469  0.09093903  0.43898390    -0.66520
O31         O  0.46412568  0.10024700  0.46458080    -0.53710
C32         C  0.48731996  0.10828889  0.44499437     0.73450
Zr33       Zr  0.03306157  0.03957435  0.45098326     2.77540
O34         O  0.07573450  0.07920123  0.44861037    -0.97270
O35         O  0.02781236  0.03714428  0.38948364    -0.78090
Zr36       Zr  0.03275195  0.03924934  0.55084394     2.70070
O37         O  0.07600695  0.07801081  0.55609372    -0.79330
O38         O  0.02696056  0.03573902  0.61207662    -0.98420
Zr39       Zr  0.45629080  0.05366672  0.50027280     2.21500
Zr40       Zr  0.04266579  0.46230186  0.49974595     2.11130
O41         O  0.05502866  0.01779305  0.50081134    -2.47110
O42         O  0.01251905  0.06249470  0.50100343    -0.79130
O43         O  0.02102151  0.48469655  0.44902055    -0.71320
O44         O  0.47689298  0.03106420  0.55133726    -2.32280
O45         O  0.47718855  0.03146453  0.44905659    -2.28490
O46         O  0.02094256  0.48429075  0.55075989    -0.73080
H47         H  0.48092160  0.43099574  0.49873679     0.78910
H48         H  0.46756089  0.04075213  0.57116621     0.80000
H49         H  0.07780578  0.02147609  0.50103302     0.82230
H50         H  0.46799696  0.04137997  0.42932810     0.79830
H51         H  0.45099864  0.49732992  0.61623466     0.42870
H52         H  0.03305915  0.01372754  0.61754020     0.41840
H53         H  0.08147841  0.08322335  0.53238869     0.41520
H54         H  0.09275207  0.07112913  0.46367611     0.39450
H55         H  0.03137155  0.01458328  0.38356675     0.42580
H56         H  0.45456719  0.50107988  0.38298760     0.37370
H57         H  0.41637416  0.43253510  0.46791090     0.43480
H58         H  0.42951442  0.41859194  0.53772600     0.39900
H59         H  0.08447405  0.07720121  0.42543684     0.44820
H60         H  0.45514223  0.46411225  0.37894766     0.43540
H61         H  0.42627071  0.42645158  0.57652465     0.43680
H62         H  0.04462998  0.04904511  0.62137419     0.44030
C63         C  0.49029902  0.22906373  0.37685120     0.03590
C64         C  0.49634650  0.25797982  0.39380262    -0.12560
C65         C  0.50123416  0.28589711  0.37517813     0.01090
C66         C  0.49974214  0.28441513  0.33955237    -0.11090
C67         C  0.49285285  0.25586203  0.32253131     0.03580
C68         C  0.48834342  0.22823074  0.34132115    -0.10510
H69         H  0.49736982  0.25861132  0.42125677     0.09170
H70         H  0.50403498  0.30562863  0.32486145     0.06700
H71         H  0.48318113  0.20595477  0.32833528     0.06550
C72         C  0.21989678  0.00034837  0.37509868     0.03590
C73         C  0.24727388  0.00897851  0.39400446    -0.12560
C74         C  0.27645873  0.01553751  0.37782552     0.01090
C75         C  0.27750267  0.01503002  0.34212111    -0.11090
C76         C  0.25023635  0.00710327  0.32279118     0.03580
C77         C  0.22187324  0.99930272  0.33952940    -0.10510
H78         H  0.24577229  0.01124490  0.42130572     0.09170
H79         H  0.29975170  0.01992497  0.32928728     0.06700
H80         H  0.20092917  0.99304722  0.32459712     0.06550
C81         C  0.22117482  0.00174872  0.62592736     0.03590
C82         C  0.24832800  0.00805513  0.60627555    -0.12560
C83         C  0.27756562  0.01669991  0.62181957     0.01090
C84         C  0.27930167  0.01978249  0.65736298    -0.11090
C85         C  0.25241547  0.01340122  0.67730629     0.03580
C86         C  0.22395988  0.00342593  0.66142633    -0.10510
H87         H  0.24667044  0.00687470  0.57886034     0.09170
H88         H  0.30161354  0.02675886  0.66948347     0.06700
H89         H  0.20372957  0.99707986  0.67699501     0.06550
C90         C  0.49325546  0.23044163  0.62459401     0.03590
C91         C  0.49813214  0.25853700  0.60631274    -0.12560
C92         C  0.50338330  0.28746194  0.62362341     0.01090
C93         C  0.50342724  0.28784040  0.65926421    -0.11090
C94         C  0.49720598  0.26031638  0.67769479     0.03580
C95         C  0.49239054  0.23161367  0.66018013    -0.10510
H96         H  0.49792061  0.25776762  0.57885131     0.09170
H97         H  0.50758548  0.30997045  0.67285366     0.06700
H98         H  0.48844439  0.20996806  0.67424364     0.06550
C99         C  0.25052989  0.49037387  0.11991615     0.03590
C100        C  0.24261359  0.01949640  0.10483702    -0.12560
C101        C  0.23506849  0.04622206  0.12490292     0.01090
C102        C  0.23594327  0.04331783  0.16048583    -0.11090
C103        C  0.24500623  0.01489722  0.17594611     0.03580
C104        C  0.25169519  0.48846453  0.15545728    -0.10510
H105        H  0.24300975  0.02137514  0.07748867     0.09170
H106        H  0.22926481  0.06320819  0.17638195     0.06700
H107        H  0.25751177  0.46617739  0.16732600     0.06550
O108        O  0.22603782  0.34941075  0.93687396    -0.74840
O109        O  0.27457393  0.35769251  0.96209654    -0.53740
C110        C  0.25124321  0.36630988  0.94284990     0.78890
O111        O  0.15627933  0.27689721  0.06566672    -0.59440
O112        O  0.14659906  0.22939574  0.03925378    -0.52470
C113        C  0.13872069  0.25234433  0.05932840     0.70910
O114        O  0.22970022  0.35428716  0.05825872    -0.73990
O115        O  0.27854649  0.35864635  0.03331808    -0.54560
C116        C  0.25556256  0.36955026  0.05129622     0.76910
O117        O  0.15085892  0.27341909  0.93967485    -0.59140
O118        O  0.14549662  0.22559328  0.96627385    -0.52260
C119        C  0.13526488  0.24800694  0.94717734     0.73500
Zr120      Zr  0.20273867  0.29810749  0.95033065     2.54710
O121        O  0.16143963  0.33810471  0.94696386    -0.79700
O122        O  0.20499056  0.29259378  0.88888011    -0.93120
Zr123      Zr  0.20653150  0.30135572  0.05034712     2.64680
O124        O  0.16608749  0.34221974  0.05513059    -0.98080
O125        O  0.21377709  0.29979885  0.11163003    -0.80140
O126        O  0.22628644  0.32189522  0.99907347    -0.83490
O127        O  0.18252746  0.27783562  0.00160465    -2.18200
O128        O  0.23345502  0.19227733  0.92693906    -0.66880
O129        O  0.20091435  0.17362256  0.96780450    -0.51450
C130        C  0.21772161  0.16972914  0.94078301     0.71880
O131        O  0.32333184  0.25859499  0.06020074    -0.59790
O132        O  0.32959288  0.30606242  0.03321241    -0.51770
C133        C  0.33932954  0.28362359  0.05255558     0.73690
O134        O  0.24607903  0.18613553  0.06727916    -0.71190
O135        O  0.19858868  0.17647562  0.04034116    -0.49860
C136        C  0.22106581  0.16900359  0.06128759     0.75070
O137        O  0.31857206  0.25669070  0.93473340    -0.66520
O138        O  0.32786092  0.30434650  0.96096339    -0.53710
C139        C  0.33575091  0.28154448  0.94077913     0.73450
Zr140      Zr  0.26801487  0.23320714  0.95019111     2.77540
O141        O  0.30323494  0.18779119  0.95460337    -0.97270
O142        O  0.27402887  0.23283052  0.88884847    -0.78090
Zr143      Zr  0.27096649  0.23568729  0.05032792     2.70070
O144        O  0.31062142  0.19418321  0.05484602    -0.79330
O145        O  0.26921812  0.24337497  0.11153613    -0.98420
Zr146      Zr  0.28192324  0.31121588  0.99796980     2.21500
Zr147      Zr  0.19268764  0.22188994  0.00239922     2.11130
O148        O  0.24853568  0.21149792  0.00118636    -2.47110
O149        O  0.29204782  0.25577504  0.99918716    -0.79130
O150        O  0.21255476  0.24295688  0.95036573    -0.71320
O151        O  0.26181573  0.29109413  0.05032158    -2.32280
O152        O  0.25820891  0.28829940  0.94790474    -2.28490
O153        O  0.21570032  0.24586558  0.05234366    -0.73080
H154        H  0.15993420  0.28192870  0.00216888     0.78910
H155        H  0.27221186  0.30127911  0.06954244     0.80000
H156        H  0.25258115  0.18899136  0.00141279     0.82230
H157        H  0.26730172  0.29735421  0.92768664     0.79830
H158        H  0.23088291  0.31559199  0.11657659     0.42870
H159        H  0.24728364  0.23695312  0.11787528     0.41840
H160        H  0.31571455  0.18868154  0.03104235     0.41520
H161        H  0.28889910  0.16903797  0.95606485     0.39450
H162        H  0.25670708  0.24656285  0.88049822     0.42580
H163        H  0.22392955  0.30524092  0.88219408     0.37370
H164        H  0.15960056  0.34628876  0.97048090     0.43480
H165        H  0.14845840  0.33505687  0.03995226     0.39900
H166        H  0.31303677  0.18595088  0.93191433     0.44820
H167        H  0.18661511  0.30492716  0.88052624     0.43540
H168        H  0.15752183  0.34007741  0.07833911     0.43680
H169        H  0.28289523  0.22642459  0.12069820     0.44030
C170        C  0.45835526  0.26767460  0.12217341     0.03590
C171        C  0.45755763  0.26363089  0.15758478    -0.12560
C172        C  0.48568032  0.25794033  0.17609676     0.01090
C173        C  0.01450270  0.25495757  0.15863437    -0.11090
C174        C  0.01543834  0.25761322  0.12334598     0.03580
C175        C  0.48753763  0.26421772  0.10522034    -0.10510
H176        H  0.43502001  0.26452101  0.17074972     0.09170
H177        H  0.03653032  0.25118200  0.17251746     0.06700
H178        H  0.48887826  0.26761967  0.07806344     0.06550
C179        C  0.24808186  0.48911643  0.87746277     0.03590
C180        C  0.25224885  0.48995632  0.84211925    -0.12560
C181        C  0.24875962  0.01824105  0.82414151     0.01090
C182        C  0.24111563  0.04598985  0.84202375    -0.11090
C183        C  0.23762173  0.04608709  0.87753257     0.03580
C184        C  0.24120126  0.01739874  0.89519606    -0.10310
H185        H  0.25737842  0.46821042  0.82844845     0.09170
H186        H  0.23811543  0.06783954  0.82814651     0.06700
H187        H  0.23855554  0.01699234  0.92249013     0.06550
C188        C  0.45838146  0.27290743  0.87528682     0.03590
C189        C  0.46100828  0.27481912  0.83988917    -0.12560
C190        C  0.48996709  0.26868229  0.82380260     0.01090
C191        C  0.01691470  0.26173424  0.84344056    -0.11090
C192        C  0.01498216  0.25973664  0.87890145     0.03580
C193        C  0.48554348  0.26549681  0.89468700    -0.10510
H194        H  0.44038390  0.28093610  0.82466978     0.09170
H195        H  0.03940600  0.25761675  0.83092956     0.06700
H196        H  0.48353420  0.26330224  0.92193992     0.06550
C197        C  0.20359880  0.11098268  0.93541369    -0.20850
C198        C  0.22091613  0.13778150  0.92441490    -0.08890
C199        C  0.24407402  0.13335996  0.89888439     0.29970
C200        C  0.24952373  0.10351548  0.88506112    -0.20850
C201        C  0.23196888  0.07689721  0.89531827    -0.08910
C202        C  0.20891093  0.08078652  0.92088940     0.29970
F203        F  0.19100586  0.05571307  0.93121547    -0.19430
H204        H  0.18598719  0.11336799  0.95519365     0.18340
H205        H  0.26790396  0.10125026  0.86604730     0.18340
F206        F  0.26241514  0.15768400  0.88737585    -0.19420
C207        C  0.23257998  0.40279877  0.89770156    -0.20850
C208        C  0.25238150  0.39780654  0.92608677    -0.08890
C209        C  0.27087556  0.42350603  0.93877506     0.29970
C210        C  0.26915529  0.45343149  0.92336517    -0.20850
C211        C  0.24929733  0.45807282  0.89496028    -0.08910
C212        C  0.23096157  0.43239626  0.88240435     0.29970
F213        F  0.21077461  0.43609239  0.85567004    -0.19430
H214        H  0.21793705  0.38368970  0.88727449     0.18340
H215        H  0.28354131  0.47290787  0.93338580     0.18340
F216        F  0.28989595  0.42002425  0.96646263    -0.19420
C217        C  0.37725434  0.30085213  0.09775771    -0.20850
C218        C  0.37159140  0.28524622  0.06678048    -0.08890
C219        C  0.39496212  0.26542953  0.05319956     0.29970
C220        C  0.42327989  0.26036191  0.07101321    -0.20850
C221        C  0.42882661  0.27500669  0.10274039    -0.08910
C222        C  0.40575358  0.29603188  0.11559649     0.29970
F223        F  0.41049406  0.31171372  0.14545983    -0.19430
H224        H  0.35904753  0.31570016  0.10878306     0.18340
H225        H  0.44028966  0.24386712  0.06055364     0.18340
F226        F  0.38956916  0.24962006  0.02350843    -0.19420
C227        C  0.05342872  0.23059192  0.08423960    -0.20850
C228        C  0.04631393  0.25601892  0.10602726    -0.08890
C229        C  0.06932275  0.27960272  0.11245698     0.29970
C230        C  0.09921114  0.27765860  0.09764149    -0.20850
C231        C  0.10696543  0.25215177  0.07587857    -0.08910
C232        C  0.08359478  0.22852218  0.06925616     0.29970
F233        F  0.08967259  0.20361292  0.04833647    -0.19430
H234        H  0.03573412  0.21218666  0.07921231     0.18340
H235        H  0.11622468  0.29654092  0.10322193     0.18340
F236        F  0.06268792  0.30479631  0.13283972    -0.19420
C237        C  0.42355932  0.29532633  0.92123631    -0.20850
C238        C  0.42681077  0.27690642  0.89152008    -0.08890
C239        C  0.39964010  0.26172835  0.87757320     0.29970
C240        C  0.37010860  0.26484036  0.89302036    -0.20850
C241        C  0.36676369  0.28270008  0.92305284    -0.08910
C242        C  0.39378094  0.29827141  0.93693950     0.29970
F243        F  0.39178206  0.31503534  0.96638208    -0.19430
H244        H  0.44415384  0.30724234  0.93242858     0.18340
H245        H  0.34982532  0.25240987  0.88178180     0.18340
F246        F  0.40177479  0.24254054  0.84984589    -0.19420
C247        C  0.09563674  0.22696479  0.90522525    -0.20850
C248        C  0.10266166  0.24592834  0.93366052    -0.08890
C249        C  0.07968721  0.26696245  0.94599786     0.29970
C250        C  0.05062044  0.27024150  0.92896998    -0.20850
C251        C  0.04402449  0.25266063  0.89924708    -0.08910
C252        C  0.06646616  0.23010968  0.88814723     0.29970
F253        F  0.06054390  0.21151882  0.86046918    -0.19430
H254        H  0.11327978  0.21077903  0.89538892     0.18340
H255        H  0.03397337  0.28776845  0.93809646     0.18340
F256        F  0.08604638  0.28540987  0.97369760    -0.19420
C257        C  0.24005286  0.10550887  0.12516340    -0.20850
C258        C  0.22819344  0.07774549  0.10930383    -0.08890
C259        C  0.21061686  0.08082273  0.07877402     0.29970
C260        C  0.20654760  0.11080356  0.06398796    -0.20850
C261        C  0.21971086  0.13822321  0.07939541    -0.08910
C262        C  0.23561864  0.13523524  0.11077352     0.29970
F263        F  0.24770996  0.16112624  0.12735176    -0.19430
H264        H  0.25383678  0.10429469  0.14843106     0.18340
H265        H  0.19420640  0.11239506  0.03983973     0.18340
F266        F  0.19736637  0.05500848  0.06314037    -0.19420
C267        C  0.23421511  0.45398310  0.07220699    -0.20850
C268        C  0.25554854  0.46129388  0.09888964    -0.08890
C269        C  0.27957772  0.43927291  0.10691701     0.29970
C270        C  0.28081641  0.40995900  0.08990348    -0.20850
C271        C  0.25814805  0.40213618  0.06483258    -0.08910
C272        C  0.23538551  0.42465789  0.05544469     0.29970
F273        F  0.21363447  0.41782587  0.03068471    -0.19430
H274        H  0.21550394  0.47032355  0.06545301     0.18340
H275        H  0.29853974  0.39280966  0.09736941     0.18340
F276        F  0.30147505  0.44576324  0.13162371    -0.19420
C277        C  0.46874935  0.24956006  0.76797392    -0.20850
C278        C  0.49156945  0.26743376  0.78636432    -0.08890
C279        C  0.01622278  0.28291419  0.76885694     0.29970
C280        C  0.01820614  0.28003180  0.73364699    -0.20850
C281        C  0.49549642  0.26198496  0.71519819    -0.08910
C282        C  0.47056164  0.24687452  0.73273461     0.29970
F283        F  0.44743480  0.23023932  0.71582257    -0.19430
H284        H  0.44960636  0.23736985  0.78100205     0.18340
H285        H  0.03760819  0.29193095  0.72076236     0.18340
F286        F  0.03800672  0.30133439  0.78568707    -0.19420
C287        C  0.22845592  0.03450922  0.76712851    -0.20850
C288        C  0.25142588  0.01859066  0.78650612    -0.08890
C289        C  0.27621192  0.50276034  0.76956434     0.29970
C290        C  0.27714766  0.50202427  0.73402983    -0.20850
C291        C  0.25342135  0.01694612  0.71479973    -0.08910
C292        C  0.22943597  0.03382275  0.73174098     0.29970
F293        F  0.20680853  0.04961322  0.71402318    -0.19430
H294        H  0.20915341  0.04691303  0.77939676     0.18340
H295        H  0.29592075  0.48904100  0.72151054     0.18340
F296        F  0.29962166  0.48815600  0.78729665    -0.19420
C297        C  0.23442253  0.48609411  0.23015636    -0.20850
C298        C  0.24723702  0.01263973  0.21354518    -0.08890
C299        C  0.26255197  0.03656005  0.23308630     0.29970
C300        C  0.26418106  0.03420688  0.26845178    -0.20850
C301        C  0.25070916  0.00799034  0.28508115    -0.08910
C302        C  0.23621375  0.48365743  0.26545277     0.29970
F303        F  0.22401865  0.45730658  0.28033463    -0.19430
H304        H  0.22260402  0.46729175  0.21579434     0.18340
H305        H  0.27544544  0.05326225  0.28293748     0.18340
F306        F  0.27642058  0.06198756  0.21800775    -0.19420
C307        C  0.47090912  0.27765965  0.26873840    -0.20850
C308        C  0.48996587  0.25522215  0.28512819    -0.08890
C309        C  0.00655282  0.23288938  0.26556802     0.29970
C310        C  0.00421299  0.23328212  0.23022060    -0.20850
C311        C  0.48556845  0.25608434  0.21368639    -0.08910
C312        C  0.46871123  0.27821410  0.23339646     0.29970
F313        F  0.45127073  0.30131294  0.21861094    -0.19430
H314        H  0.45790888  0.29503905  0.28340151     0.18340
H315        H  0.01737394  0.21593640  0.21569770     0.18340
F316        F  0.02602819  0.21153801  0.28052929    -0.19420
C317        C  0.02922554  0.35131015  0.56100990    -0.20850
C318        C  0.01343081  0.37785256  0.57437622    -0.08890
C319        C  0.49495760  0.37413955  0.60383221     0.29970
C320        C  0.49132235  0.34461678  0.61853327    -0.20850
C321        C  0.50690890  0.31798543  0.60545787    -0.08910
C322        C  0.02611283  0.32152616  0.57648302     0.29970
F323        F  0.04220320  0.29650822  0.56347120    -0.19430
H324        H  0.04341557  0.35346775  0.53828963     0.18340
H325        H  0.47598461  0.34266779  0.64041692     0.18340
F326        F  0.48008823  0.39908086  0.61868441    -0.19420
C327        C  0.46840319  0.19389360  0.58088398    -0.20850
C328        C  0.49078161  0.19938796  0.60706386    -0.08890
C329        C  0.01093804  0.17478182  0.61698426     0.29970
C330        C  0.00871250  0.14526124  0.60118487    -0.20850
C331        C  0.48653572  0.13940310  0.57480412    -0.08910
C332        C  0.46611050  0.16405345  0.56488742     0.29970
F333        F  0.44446697  0.15964006  0.53946655    -0.19430
H334        H  0.45260408  0.21265457  0.57302195     0.18340
H335        H  0.02485988  0.12700216  0.60958620     0.18340
F336        F  0.03351465  0.17953116  0.64144630    -0.19420
C337        C  0.02977249  0.35187905  0.43556461    -0.20850
C338        C  0.01268379  0.37781519  0.42290411    -0.08890
C339        C  0.49299007  0.37313674  0.39405796     0.29970
C340        C  0.48944287  0.34325848  0.37939729    -0.20850
C341        C  0.50591438  0.31717944  0.39219081    -0.08910
C342        C  0.02651319  0.32173888  0.42030224     0.29970
F343        F  0.04371382  0.29730452  0.43274387    -0.19430
H344        H  0.04502769  0.35473817  0.45769634     0.18340
H345        H  0.47322978  0.34049370  0.35802346     0.18340
F346        F  0.47663619  0.39737494  0.37991923    -0.19420
C347        C  0.01085122  0.17552712  0.38687033    -0.20850
C348        C  0.48896823  0.19893257  0.39544695    -0.08890
C349        C  0.46600441  0.19272159  0.42039184     0.29970
C350        C  0.46506462  0.16308417  0.43637575    -0.20850
C351        C  0.48715994  0.13948008  0.42775239    -0.08910
C352        C  0.01015106  0.14624642  0.40263424     0.29970
F353        F  0.03210671  0.12463936  0.39279098    -0.19430
H354        H  0.02870878  0.18000325  0.36770287     0.18340
H355        H  0.44721753  0.15868990  0.45553211     0.18340
F356        F  0.44411450  0.21492965  0.42859804    -0.19420
C357        C  0.13241516  0.00492552  0.60783240    -0.20850
C358        C  0.12900150  0.48687678  0.57780422    -0.08890
C359        C  0.15609203  0.47182023  0.56458844     0.29970
C360        C  0.18601721  0.47601495  0.58058851    -0.20850
C361        C  0.18939386  0.99536017  0.60982353    -0.08910
C362        C  0.16201408  0.00965771  0.62322838     0.29970
F363        F  0.16391959  0.03003714  0.65005804    -0.19430
H364        H  0.11215880  0.01689191  0.61881202     0.18340
H365        H  0.20663993  0.46456917  0.56979828     0.18340
F366        F  0.15407163  0.45449879  0.53546332    -0.19420
C367        C  0.34523839  0.49896367  0.56199541    -0.20850
C368        C  0.36513780  0.02574879  0.56628817    -0.08890
C369        C  0.35503479  0.05085841  0.58712606     0.29970
C370        C  0.32609160  0.04828572  0.60467429    -0.20850
C371        C  0.30667787  0.02095048  0.60108776    -0.08910
C372        C  0.31625602  0.49659830  0.57897383     0.29970
F373        F  0.29853932  0.46959522  0.57539235    -0.19430
H374        H  0.35270112  0.47927909  0.54617232     0.18340
H375        H  0.31909684  0.06732960  0.62158208     0.18340
F376        F  0.37398750  0.07681578  0.59218515    -0.19420
C377        C  0.15585656  0.47380682  0.43805321    -0.20850
C378        C  0.12831842  0.48630105  0.42293824    -0.08890
C379        C  0.13106920  0.00134964  0.39130819     0.29970
C380        C  0.16071117  0.00569432  0.37641086    -0.20850
C381        C  0.18857721  0.99432689  0.39179905    -0.08910
C382        C  0.18578821  0.47764189  0.42259899     0.29970
F383        F  0.21183626  0.46507369  0.43780003    -0.19430
H384        H  0.15441620  0.46221025  0.46239727     0.18340
H385        H  0.16177914  0.01891476  0.35302849     0.18340
F386        F  0.10504099  0.01284020  0.37500513    -0.19420
C387        C  0.32873424  0.04449924  0.38789762    -0.20850
C388        C  0.30618596  0.02144270  0.39804633    -0.08890
C389        C  0.31344948  0.00238007  0.42620514     0.29970
C390        C  0.34291683  0.00546097  0.44267766    -0.20850
C391        C  0.36569276  0.02757992  0.43171556    -0.08910
C392        C  0.35831649  0.04754017  0.40456103     0.29970
F393        F  0.38038125  0.06848395  0.39287335    -0.19430
H394        H  0.32377630  0.05962245  0.36648194     0.18340
H395        H  0.34853152  0.98958371  0.46330168     0.18340
F396        F  0.29309490  0.97916886  0.43644376    -0.19420
O397        O  0.41296908  0.99981331  0.43948672    -0.74840
O398        O  0.40932491  0.54916944  0.46360271    -0.53740
C399        C  0.39822221  0.52580165  0.44564177     0.78890
O400        O  0.48900412  0.92612554  0.56296571    -0.59440
O401        O  0.03556388  0.91594530  0.53579499    -0.52470
C402        C  0.01309850  0.90862492  0.55657012     0.70910
O403        O  0.41270277  0.99868005  0.55786016    -0.73990
O404        O  0.40887034  0.54839665  0.53571915    -0.54560
C405        C  0.39771034  0.52459441  0.55242253     0.76910
O406        O  0.48841878  0.92639763  0.43446747    -0.59140
O407        O  0.03500058  0.91620954  0.46221409    -0.52260
C408        C  0.01248545  0.90884900  0.44095699     0.73500
Zr409      Zr  0.46498876  0.97659459  0.44936990     2.54710
O410        O  0.42407967  0.93535212  0.44443893    -0.79700
O411        O  0.46773075  0.98233042  0.38806725    -0.93120
Zr412      Zr  0.46496487  0.97614856  0.54908211     2.64680
O413        O  0.42330632  0.93565213  0.55371442    -0.98080
O414        O  0.46813452  0.98227515  0.61048529    -0.80140
O415        O  0.44355419  0.99845374  0.49935458    -0.83490
O416        O  0.48597606  0.95340570  0.49908626    -2.18200
O417        O  0.08144637  0.51321716  0.43495738    -0.66880
O418        O  0.08953478  0.96693320  0.46297689    -0.51450
C419        C  0.09775891  0.98842699  0.44148607     0.71880
O420        O  0.01123915  0.59080880  0.56378867    -0.59790
O421        O  0.46386193  0.59989097  0.53718775    -0.51770
C422        C  0.48689866  0.60806131  0.55738190     0.73690
O423        O  0.08153193  0.51315679  0.56625125    -0.71190
O424        O  0.08973765  0.96702205  0.53721084    -0.49860
C425        C  0.09808600  0.98856646  0.55917397     0.75070
O426        O  0.01156470  0.59093902  0.43898389    -0.66520
O427        O  0.46412569  0.60024699  0.46458080    -0.53710
C428        C  0.48731997  0.60828888  0.44499437     0.73450
Zr429      Zr  0.03306158  0.53957434  0.45098326     2.77540
O430        O  0.07573451  0.57920122  0.44861035    -0.97270
O431        O  0.02781236  0.53714426  0.38948364    -0.78090
Zr432      Zr  0.03275196  0.53924933  0.55084393     2.70070
O433        O  0.07600695  0.57801080  0.55609371    -0.79330
O434        O  0.02696057  0.53573902  0.61207661    -0.98420
Zr435      Zr  0.45629081  0.55366671  0.50027280     2.21500
Zr436      Zr  0.04266579  0.96230187  0.49974595     2.11130
O437        O  0.05502867  0.51779304  0.50081134    -2.47110
O438        O  0.01251906  0.56249469  0.50100342    -0.79130
O439        O  0.02102150  0.98469656  0.44902055    -0.71320
O440        O  0.47689299  0.53106419  0.55133726    -2.32280
O441        O  0.47718855  0.53146452  0.44905659    -2.28490
O442        O  0.02094255  0.98429076  0.55075989    -0.73080
H443        H  0.48092160  0.93099575  0.49873679     0.78910
H444        H  0.46756090  0.54075213  0.57116620     0.80000
H445        H  0.07780578  0.52147608  0.50103302     0.82230
H446        H  0.46799697  0.54137997  0.42932810     0.79830
H447        H  0.45099863  0.99732992  0.61623467     0.42870
H448        H  0.03305916  0.51372754  0.61754019     0.41840
H449        H  0.08147842  0.58322334  0.53238868     0.41520
H450        H  0.09275208  0.57112912  0.46367610     0.39450
H451        H  0.03137154  0.51458326  0.38356675     0.42580
H452        H  0.45456719  0.00107988  0.38298760     0.37370
H453        H  0.41637416  0.93253510  0.46791091     0.43480
H454        H  0.42951441  0.91859195  0.53772602     0.39900
H455        H  0.08447406  0.57720119  0.42543682     0.44820
H456        H  0.45514222  0.96411225  0.37894766     0.43540
H457        H  0.42627071  0.92645159  0.57652467     0.43680
H458        H  0.04462999  0.54904511  0.62137418     0.44030
C459        C  0.49029904  0.72906373  0.37685121     0.03590
C460        C  0.49634651  0.75797982  0.39380263    -0.12560
C461        C  0.50123417  0.78589711  0.37517814     0.01090
C462        C  0.49974216  0.78441514  0.33955238    -0.11090
C463        C  0.49285287  0.75586203  0.32253132     0.03580
C464        C  0.48834344  0.72823074  0.34132116    -0.10510
H465        H  0.49736983  0.75861132  0.42125678     0.09170
H466        H  0.50403499  0.80562863  0.32486146     0.06700
H467        H  0.48318115  0.70595477  0.32833529     0.06550
C468        C  0.21989678  0.50034837  0.37509869     0.03590
C469        C  0.24727389  0.50897851  0.39400447    -0.12560
C470        C  0.27645873  0.51553752  0.37782553     0.01090
C471        C  0.27750267  0.51503002  0.34212112    -0.11090
C472        C  0.25023636  0.50710327  0.32279119     0.03580
C473        C  0.22187325  0.49930272  0.33952940    -0.10510
H474        H  0.24577229  0.51124491  0.42130572     0.09170
H475        H  0.29975171  0.51992498  0.32928729     0.06700
H476        H  0.20092918  0.49304721  0.32459713     0.06550
C477        C  0.22117483  0.50174872  0.62592736     0.03590
C478        C  0.24832800  0.50805513  0.60627555    -0.12560
C479        C  0.27756563  0.51669991  0.62181957     0.01090
C480        C  0.27930168  0.51978249  0.65736298    -0.11090
C481        C  0.25241547  0.51340122  0.67730629     0.03580
C482        C  0.22395989  0.50342593  0.66142632    -0.10510
H483        H  0.24667045  0.50687469  0.57886033     0.09170
H484        H  0.30161355  0.52675886  0.66948346     0.06700
H485        H  0.20372957  0.49707987  0.67699501     0.06550
C486        C  0.49325547  0.73044163  0.62459399     0.03590
C487        C  0.49813214  0.75853700  0.60631273    -0.12560
C488        C  0.50338329  0.78746194  0.62362340     0.01090
C489        C  0.50342723  0.78784040  0.65926420    -0.11090
C490        C  0.49720598  0.76031638  0.67769478     0.03580
C491        C  0.49239055  0.73161366  0.66018012    -0.10510
H492        H  0.49792061  0.75776762  0.57885130     0.09170
H493        H  0.50758546  0.80997045  0.67285365     0.06700
H494        H  0.48844440  0.70996805  0.67424363     0.06550
C495        C  0.25052990  0.99037386  0.11991614     0.03590
C496        C  0.24261358  0.51949641  0.10483703    -0.12560
C497        C  0.23506848  0.54622206  0.12490293     0.01090
C498        C  0.23594326  0.54331783  0.16048584    -0.11090
C499        C  0.24500623  0.51489723  0.17594612     0.03580
C500        C  0.25169519  0.98846452  0.15545728    -0.10510
H501        H  0.24300973  0.52137514  0.07748868     0.09170
H502        H  0.22926481  0.56320819  0.17638196     0.06700
H503        H  0.25751175  0.96617738  0.16732600     0.06550
O504        O  0.22603783  0.84941073  0.93687395    -0.74840
O505        O  0.27457393  0.85769249  0.96209653    -0.53740
C506        C  0.25124321  0.86630986  0.94284989     0.78890
O507        O  0.15627931  0.77689723  0.06566671    -0.59440
O508        O  0.14659905  0.72939575  0.03925379    -0.52470
C509        C  0.13872067  0.75234435  0.05932840     0.70910
O510        O  0.22970022  0.85428716  0.05825871    -0.73990
O511        O  0.27854649  0.85864634  0.03331806    -0.54560
C512        C  0.25556257  0.86955025  0.05129621     0.76910
O513        O  0.15085892  0.77341908  0.93967484    -0.59140
O514        O  0.14549661  0.72559328  0.96627385    -0.52260
C515        C  0.13526488  0.74800693  0.94717733     0.73500
Zr516      Zr  0.20273867  0.79810748  0.95033064     2.54710
O517        O  0.16143963  0.83810470  0.94696383    -0.79700
O518        O  0.20499058  0.79259376  0.88888011    -0.93120
Zr519      Zr  0.20653149  0.80135573  0.05034711     2.64680
O520        O  0.16608748  0.84221975  0.05513057    -0.98080
O521        O  0.21377707  0.79979886  0.11163002    -0.80140
O522        O  0.22628644  0.82189521  0.99907346    -0.83490
O523        O  0.18252745  0.77783562  0.00160464    -2.18200
O524        O  0.23345495  0.69227736  0.92693905    -0.66880
O525        O  0.20091433  0.67362256  0.96780451    -0.51450
C526        C  0.21772158  0.66972915  0.94078301     0.71880
O527        O  0.32333182  0.75859499  0.06020076    -0.59790
O528        O  0.32959287  0.80606241  0.03321241    -0.51770
C529        C  0.33932952  0.78362359  0.05255559     0.73690
O530        O  0.24607901  0.68613553  0.06727917    -0.71190
O531        O  0.19858866  0.67647563  0.04034118    -0.49860
C532        C  0.22106579  0.66900359  0.06128760     0.75070
O533        O  0.31857205  0.75669067  0.93473340    -0.66520
O534        O  0.32786092  0.80434647  0.96096338    -0.53710
C535        C  0.33575091  0.78154446  0.94077912     0.73450
Zr536      Zr  0.26801486  0.73320711  0.95019112     2.77540
O537        O  0.30323490  0.68779114  0.95460340    -0.97270
O538        O  0.27402890  0.73283045  0.88884848    -0.78090
Zr539      Zr  0.27096648  0.73568728  0.05032793     2.70070
O540        O  0.31062141  0.69418321  0.05484604    -0.79330
O541        O  0.26921810  0.74337496  0.11153614    -0.98420
Zr542      Zr  0.28192324  0.81121587  0.99796979     2.21500
Zr543      Zr  0.19268762  0.72188994  0.00239922     2.11130
O544        O  0.24853566  0.71149791  0.00118638    -2.47110
O545        O  0.29204781  0.75577502  0.99918716    -0.79130
O546        O  0.21255475  0.74295686  0.95036573    -0.71320
O547        O  0.26181572  0.79109412  0.05032158    -2.32280
O548        O  0.25820891  0.78829938  0.94790473    -2.28490
O549        O  0.21570030  0.74586559  0.05234366    -0.73080
H550        H  0.15993419  0.78192870  0.00216887     0.78910
H551        H  0.27221185  0.80127910  0.06954244     0.80000
H552        H  0.25258114  0.68899135  0.00141281     0.82230
H553        H  0.26730172  0.79735418  0.92768664     0.79830
H554        H  0.23088290  0.81559199  0.11657658     0.42870
H555        H  0.24728362  0.73695313  0.11787529     0.41840
H556        H  0.31571455  0.68868155  0.03104236     0.41520
H557        H  0.28889905  0.66903793  0.95606484     0.39450
H558        H  0.25670717  0.74656284  0.88049822     0.42580
H559        H  0.22392956  0.80524089  0.88219407     0.37370
H560        H  0.15960055  0.84628875  0.97048087     0.43480
H561        H  0.14845840  0.83505688  0.03995224     0.39900
H562        H  0.31303677  0.68595084  0.93191439     0.44820
H563        H  0.18661512  0.80492713  0.88052622     0.43540
H564        H  0.15752182  0.84007743  0.07833908     0.43680
H565        H  0.28289521  0.72642459  0.12069821     0.44030
C566        C  0.45835525  0.76767461  0.12217343     0.03590
C567        C  0.45755763  0.76363089  0.15758479    -0.12560
C568        C  0.48568032  0.75794033  0.17609677     0.01090
C569        C  0.01450270  0.75495758  0.15863438    -0.11090
C570        C  0.01543833  0.75761324  0.12334600     0.03580
C571        C  0.48753762  0.76421773  0.10522035    -0.10510
H572        H  0.43502001  0.76452101  0.17074974     0.09170
H573        H  0.03653032  0.75118202  0.17251746     0.06700
H574        H  0.48887824  0.76761969  0.07806345     0.06550
C575        C  0.24808186  0.98911641  0.87746278     0.03590
C576        C  0.25224885  0.98995630  0.84211925    -0.12560
C577        C  0.24875963  0.51824107  0.82414151     0.01090
C578        C  0.24111565  0.54598987  0.84202375    -0.11090
C579        C  0.23762174  0.54608711  0.87753257     0.03580
C580        C  0.24120127  0.51739875  0.89519606    -0.10310
H581        H  0.25737842  0.96821041  0.82844845     0.09170
H582        H  0.23811545  0.56783955  0.82814651     0.06700
H583        H  0.23855555  0.51699235  0.92249013     0.06550
C584        C  0.45838145  0.77290741  0.87528681     0.03590
C585        C  0.46100827  0.77481910  0.83988916    -0.12560
C586        C  0.48996708  0.76868228  0.82380259     0.01090
C587        C  0.01691470  0.76173423  0.84344055    -0.11090
C588        C  0.01498215  0.75973662  0.87890143     0.03580
C589        C  0.48554348  0.76549680  0.89468699    -0.10510
H590        H  0.44038389  0.78093607  0.82466977     0.09170
H591        H  0.03940599  0.75761674  0.83092955     0.06700
H592        H  0.48353420  0.76330222  0.92193991     0.06550
C593        C  0.20359879  0.61098269  0.93541369    -0.20850
C594        C  0.22091611  0.63778151  0.92441491    -0.08890
C595        C  0.24407401  0.63335998  0.89888440     0.29970
C596        C  0.24952373  0.60351550  0.88506112    -0.20850
C597        C  0.23196888  0.57689722  0.89531827    -0.08910
C598        C  0.20891093  0.58078652  0.92088940     0.29970
F599        F  0.19100587  0.55571307  0.93121547    -0.19430
H600        H  0.18598718  0.61336799  0.95519366     0.18340
H601        H  0.26790396  0.60125029  0.86604730     0.18340
F602        F  0.26241512  0.65768403  0.88737586    -0.19420
C603        C  0.23257997  0.90279875  0.89770156    -0.20850
C604        C  0.25238150  0.89780652  0.92608677    -0.08890
C605        C  0.27087556  0.92350602  0.93877505     0.29970
C606        C  0.26915529  0.95343147  0.92336517    -0.20850
C607        C  0.24929732  0.95807281  0.89496028    -0.08910
C608        C  0.23096156  0.93239624  0.88240435     0.29970
F609        F  0.21077460  0.93609237  0.85567004    -0.19430
H610        H  0.21793705  0.88368969  0.88727449     0.18340
H611        H  0.28354131  0.97290785  0.93338579     0.18340
F612        F  0.28989596  0.92002424  0.96646262    -0.19420
C613        C  0.37725432  0.80085211  0.09775774    -0.20850
C614        C  0.37159139  0.78524622  0.06678050    -0.08890
C615        C  0.39496211  0.76542955  0.05319956     0.29970
C616        C  0.42327988  0.76036193  0.07101322    -0.20850
C617        C  0.42882660  0.77500670  0.10274041    -0.08910
C618        C  0.40575356  0.79603186  0.11559652     0.29970
F619        F  0.41049402  0.81171370  0.14545986    -0.19430
H620        H  0.35904750  0.81570013  0.10878310     0.18340
H621        H  0.44028966  0.74386714  0.06055364     0.18340
F622        F  0.38956916  0.74962009  0.02350843    -0.19420
C623        C  0.05342870  0.73059194  0.08423961    -0.20850
C624        C  0.04631392  0.75601894  0.10602726    -0.08890
C625        C  0.06932274  0.77960274  0.11245698     0.29970
C626        C  0.09921113  0.77765862  0.09764149    -0.20850
C627        C  0.10696542  0.75215179  0.07587857    -0.08910
C628        C  0.08359476  0.72852220  0.06925616     0.29970
F629        F  0.08967257  0.70361294  0.04833648    -0.19430
H630        H  0.03573411  0.71218667  0.07921232     0.18340
H631        H  0.11622467  0.79654094  0.10322192     0.18340
F632        F  0.06268791  0.80479633  0.13283972    -0.19420
C633        C  0.42355931  0.79532631  0.92123629    -0.20850
C634        C  0.42681076  0.77690639  0.89152007    -0.08890
C635        C  0.39964010  0.76172831  0.87757320     0.29970
C636        C  0.37010860  0.76484032  0.89302036    -0.20850
C637        C  0.36676368  0.78270005  0.92305283    -0.08910
C638        C  0.39378093  0.79827139  0.93693949     0.29970
F639        F  0.39178205  0.81503532  0.96638207    -0.19430
H640        H  0.44415382  0.80724233  0.93242857     0.18340
H641        H  0.34982531  0.75240982  0.88178181     0.18340
F642        F  0.40177479  0.74254050  0.84984590    -0.19420
C643        C  0.09563674  0.72696479  0.90522523    -0.20850
C644        C  0.10266165  0.74592833  0.93366050    -0.08890
C645        C  0.07968720  0.76696243  0.94599786     0.29970
C646        C  0.05062043  0.77024149  0.92896997    -0.20850
C647        C  0.04402449  0.75266062  0.89924707    -0.08910
C648        C  0.06646616  0.73010968  0.88814721     0.29970
F649        F  0.06054391  0.71151882  0.86046916    -0.19430
H650        H  0.11327979  0.71077903  0.89538890     0.18340
H651        H  0.03397336  0.78776843  0.93809645     0.18340
F652        F  0.08604637  0.78540984  0.97369760    -0.19420
C653        C  0.24005284  0.60550888  0.12516342    -0.20850
C654        C  0.22819342  0.57774550  0.10930384    -0.08890
C655        C  0.21061684  0.58082273  0.07877404     0.29970
C656        C  0.20654757  0.61080357  0.06398797    -0.20850
C657        C  0.21971083  0.63822322  0.07939543    -0.08910
C658        C  0.23561861  0.63523525  0.11077353     0.29970
F659        F  0.24770993  0.66112625  0.12735177    -0.19430
H660        H  0.25383676  0.60429469  0.14843108     0.18340
H661        H  0.19420638  0.61239506  0.03983975     0.18340
F662        F  0.19736635  0.55500848  0.06314039    -0.19420
C663        C  0.23421513  0.95398310  0.07220697    -0.20850
C664        C  0.25554855  0.96129387  0.09888964    -0.08890
C665        C  0.27957772  0.93927290  0.10691702     0.29970
C666        C  0.28081641  0.90995899  0.08990349    -0.20850
C667        C  0.25814806  0.90213617  0.06483256    -0.08910
C668        C  0.23538553  0.92465789  0.05544466     0.29970
F669        F  0.21363451  0.91782588  0.03068467    -0.19430
H670        H  0.21550397  0.97032355  0.06545297     0.18340
H671        H  0.29853973  0.89280964  0.09736942     0.18340
F672        F  0.30147503  0.94576322  0.13162373    -0.19420
C673        C  0.46874935  0.74956005  0.76797391    -0.20850
C674        C  0.49156944  0.76743375  0.78636431    -0.08890
C675        C  0.01622277  0.78291418  0.76885693     0.29970
C676        C  0.01820612  0.78003180  0.73364698    -0.20850
C677        C  0.49549642  0.76198496  0.71519818    -0.08910
C678        C  0.47056164  0.74687451  0.73273460     0.29970
F679        F  0.44743480  0.73023930  0.71582255    -0.19430
H680        H  0.44960636  0.73736983  0.78100204     0.18340
H681        H  0.03760817  0.79193096  0.72076235     0.18340
F682        F  0.03800670  0.80133439  0.78568707    -0.19420
C683        C  0.22845593  0.53450924  0.76712851    -0.20850
C684        C  0.25142589  0.51859068  0.78650612    -0.08890
C685        C  0.27621191  0.00276033  0.76956434     0.29970
C686        C  0.27714765  0.00202427  0.73402983    -0.20850
C687        C  0.25342136  0.51694612  0.71479973    -0.08910
C688        C  0.22943598  0.53382277  0.73174098     0.29970
F689        F  0.20680854  0.54961323  0.71402318    -0.19430
H690        H  0.20915342  0.54691305  0.77939676     0.18340
H691        H  0.29592075  0.98904099  0.72151054     0.18340
F692        F  0.29962165  0.98815599  0.78729665    -0.19420
C693        C  0.23442251  0.98609411  0.23015635    -0.20850
C694        C  0.24723703  0.51263973  0.21354518    -0.08890
C695        C  0.26255197  0.53656005  0.23308630     0.29970
C696        C  0.26418106  0.53420689  0.26845179    -0.20850
C697        C  0.25070917  0.50799034  0.28508116    -0.08910
C698        C  0.23621373  0.98365743  0.26545277     0.29970
F699        F  0.22401863  0.95730659  0.28033462    -0.19430
H700        H  0.22260400  0.96729175  0.21579433     0.18340
H701        H  0.27544544  0.55326226  0.28293749     0.18340
F702        F  0.27642058  0.56198757  0.21800775    -0.19420
C703        C  0.47090913  0.77765965  0.26873841    -0.20850
C704        C  0.48996589  0.75522216  0.28512820    -0.08890
C705        C  0.00655283  0.73288938  0.26556803     0.29970
C706        C  0.00421300  0.73328213  0.23022061    -0.20850
C707        C  0.48556846  0.75608434  0.21368640    -0.08910
C708        C  0.46871124  0.77821410  0.23339647     0.29970
F709        F  0.45127074  0.80131294  0.21861096    -0.19430
H710        H  0.45790889  0.79503905  0.28340152     0.18340
H711        H  0.01737395  0.71593641  0.21569771     0.18340
F712        F  0.02602821  0.71153802  0.28052930    -0.19420
C713        C  0.02922554  0.85131015  0.56100990    -0.20850
C714        C  0.01343080  0.87785257  0.57437621    -0.08890
C715        C  0.49495758  0.87413955  0.60383221     0.29970
C716        C  0.49132234  0.84461678  0.61853326    -0.20850
C717        C  0.50690890  0.81798543  0.60545786    -0.08910
C718        C  0.02611282  0.82152616  0.57648302     0.29970
F719        F  0.04220319  0.79650822  0.56347119    -0.19430
H720        H  0.04341556  0.85346775  0.53828963     0.18340
H721        H  0.47598460  0.84266778  0.64041691     0.18340
F722        F  0.48008821  0.89908086  0.61868440    -0.19420
C723        C  0.46840320  0.69389360  0.58088398    -0.20850
C724        C  0.49078162  0.69938796  0.60706385    -0.08890
C725        C  0.01093804  0.67478182  0.61698426     0.29970
C726        C  0.00871250  0.64526124  0.60118486    -0.20850
C727        C  0.48653574  0.63940310  0.57480411    -0.08910
C728        C  0.46611050  0.66405344  0.56488742     0.29970
F729        F  0.44446698  0.65964005  0.53946655    -0.19430
H730        H  0.45260408  0.71265456  0.57302195     0.18340
H731        H  0.02485988  0.62700216  0.60958620     0.18340
F732        F  0.03351465  0.67953116  0.64144630    -0.19420
C733        C  0.02977249  0.85187906  0.43556462    -0.20850
C734        C  0.01268378  0.87781520  0.42290412    -0.08890
C735        C  0.49299006  0.87313674  0.39405797     0.29970
C736        C  0.48944286  0.84325848  0.37939730    -0.20850
C737        C  0.50591438  0.81717944  0.39219083    -0.08910
C738        C  0.02651319  0.82173889  0.42030226     0.29970
F739        F  0.04371383  0.79730453  0.43274388    -0.19430
H740        H  0.04502769  0.85473818  0.45769635     0.18340
H741        H  0.47322978  0.84049369  0.35802348     0.18340
F742        F  0.47663617  0.89737493  0.37991924    -0.19420
C743        C  0.01085125  0.67552713  0.38687036    -0.20850
C744        C  0.48896825  0.69893257  0.39544695    -0.08890
C745        C  0.46600442  0.69272159  0.42039184     0.29970
C746        C  0.46506463  0.66308416  0.43637574    -0.20850
C747        C  0.48715995  0.63948008  0.42775239    -0.08910
C748        C  0.01015109  0.64624643  0.40263426     0.29970
F749        F  0.03210676  0.62463938  0.39279102    -0.19430
H750        H  0.02870882  0.68000327  0.36770291     0.18340
H751        H  0.44721753  0.65868989  0.45553210     0.18340
F752        F  0.44411450  0.71492964  0.42859803    -0.19420
C753        C  0.13241516  0.50492552  0.60783240    -0.20850
C754        C  0.12900149  0.98687678  0.57780422    -0.08890
C755        C  0.15609203  0.97182023  0.56458844     0.29970
C756        C  0.18601720  0.97601496  0.58058851    -0.20850
C757        C  0.18939387  0.49536017  0.60982353    -0.08910
C758        C  0.16201409  0.50965771  0.62322837     0.29970
F759        F  0.16391959  0.53003714  0.65005803    -0.19430
H760        H  0.11215881  0.51689191  0.61881202     0.18340
H761        H  0.20663992  0.96456917  0.56979827     0.18340
F762        F  0.15407162  0.95449880  0.53546332    -0.19420
C763        C  0.34523839  0.99896367  0.56199541    -0.20850
C764        C  0.36513781  0.52574879  0.56628817    -0.08890
C765        C  0.35503480  0.55085841  0.58712606     0.29970
C766        C  0.32609161  0.54828572  0.60467428    -0.20850
C767        C  0.30667788  0.52095048  0.60108775    -0.08910
C768        C  0.31625601  0.99659830  0.57897383     0.29970
F769        F  0.29853931  0.96959522  0.57539234    -0.19430
H770        H  0.35270111  0.97927910  0.54617232     0.18340
H771        H  0.31909685  0.56732960  0.62158208     0.18340
F772        F  0.37398751  0.57681578  0.59218514    -0.19420
C773        C  0.15585655  0.97380683  0.43805320    -0.20850
C774        C  0.12831841  0.98630106  0.42293824    -0.08890
C775        C  0.13106921  0.50134963  0.39130819     0.29970
C776        C  0.16071117  0.50569431  0.37641086    -0.20850
C777        C  0.18857722  0.49432689  0.39179905    -0.08910
C778        C  0.18578821  0.97764189  0.42259898     0.29970
F779        F  0.21183625  0.96507368  0.43780002    -0.19430
H780        H  0.15441619  0.96221025  0.46239727     0.18340
H781        H  0.16177914  0.51891474  0.35302849     0.18340
F782        F  0.10504099  0.51284017  0.37500512    -0.19420
C783        C  0.32873424  0.54449924  0.38789762    -0.20850
C784        C  0.30618596  0.52144271  0.39804634    -0.08890
C785        C  0.31344948  0.50238007  0.42620515     0.29970
C786        C  0.34291684  0.50546098  0.44267766    -0.20850
C787        C  0.36569276  0.52757992  0.43171556    -0.08910
C788        C  0.35831650  0.54754017  0.40456104     0.29970
F789        F  0.38038126  0.56848395  0.39287336    -0.19430
H790        H  0.32377631  0.55962246  0.36648195     0.18340
H791        H  0.34853153  0.48958371  0.46330168     0.18340
F792        F  0.29309491  0.47916886  0.43644376    -0.19420
O793        O  0.91296909  0.49981330  0.43948672    -0.74840
O794        O  0.90932490  0.04916944  0.46360272    -0.53740
C795        C  0.89822221  0.02580165  0.44564177     0.78890
O796        O  0.98900413  0.42612553  0.56296571    -0.59440
O797        O  0.53556388  0.41594529  0.53579499    -0.52470
C798        C  0.51309850  0.40862491  0.55657012     0.70910
O799        O  0.91270278  0.49868005  0.55786016    -0.73990
O800        O  0.90887034  0.04839665  0.53571916    -0.54560
C801        C  0.89771033  0.02459442  0.55242253     0.76910
O802        O  0.98841879  0.42639763  0.43446747    -0.59140
O803        O  0.53500058  0.41620953  0.46221408    -0.52260
C804        C  0.51248545  0.40884900  0.44095698     0.73500
Zr805      Zr  0.96498877  0.47659458  0.44936990     2.54710
O806        O  0.92407968  0.43535211  0.44443894    -0.79700
O807        O  0.96773075  0.48233041  0.38806724    -0.93120
Zr808      Zr  0.96496488  0.47614856  0.54908211     2.64680
O809        O  0.92330634  0.43565212  0.55371442    -0.98080
O810        O  0.96813453  0.48227515  0.61048529    -0.80140
O811        O  0.94355420  0.49845374  0.49935458    -0.83490
O812        O  0.98597607  0.45340569  0.49908626    -2.18200
O813        O  0.58144637  0.01321717  0.43495738    -0.66880
O814        O  0.58953479  0.46693319  0.46297689    -0.51450
C815        C  0.59775891  0.48842698  0.44148607     0.71880
O816        O  0.51123913  0.09080881  0.56378868    -0.59790
O817        O  0.96386192  0.09989098  0.53718775    -0.51770
C818        C  0.98689865  0.10806132  0.55738190     0.73690
O819        O  0.58153192  0.01315680  0.56625126    -0.71190
O820        O  0.58973765  0.46702204  0.53721084    -0.49860
C821        C  0.59808601  0.48856645  0.55917397     0.75070
O822        O  0.51156469  0.09093903  0.43898389    -0.66520
O823        O  0.96412568  0.10024700  0.46458080    -0.53710
C824        C  0.98731996  0.10828889  0.44499437     0.73450
Zr825      Zr  0.53306157  0.03957435  0.45098326     2.77540
O826        O  0.57573449  0.07920123  0.44861036    -0.97270
O827        O  0.52781235  0.03714427  0.38948364    -0.78090
Zr828      Zr  0.53275195  0.03924934  0.55084394     2.70070
O829        O  0.57600694  0.07801081  0.55609371    -0.79330
O830        O  0.52696056  0.03573903  0.61207662    -0.98420
Zr831      Zr  0.95629080  0.05366672  0.50027280     2.21500
Zr832      Zr  0.54266579  0.46230186  0.49974595     2.11130
O833        O  0.55502866  0.01779305  0.50081134    -2.47110
O834        O  0.51251905  0.06249469  0.50100342    -0.79130
O835        O  0.52102151  0.48469655  0.44902055    -0.71320
O836        O  0.97689298  0.03106419  0.55133726    -2.32280
O837        O  0.97718855  0.03146453  0.44905659    -2.28490
O838        O  0.52094255  0.48429075  0.55075989    -0.73080
H839        H  0.98092161  0.43099574  0.49873679     0.78910
H840        H  0.96756089  0.04075213  0.57116621     0.80000
H841        H  0.57780577  0.02147608  0.50103302     0.82230
H842        H  0.96799696  0.04137998  0.42932810     0.79830
H843        H  0.95099864  0.49732991  0.61623466     0.42870
H844        H  0.53305915  0.01372755  0.61754020     0.41840
H845        H  0.58147840  0.08322335  0.53238868     0.41520
H846        H  0.59275207  0.07112912  0.46367610     0.39450
H847        H  0.53137154  0.01458327  0.38356675     0.42580
H848        H  0.95456720  0.50107988  0.38298760     0.37370
H849        H  0.91637417  0.43253510  0.46791092     0.43480
H850        H  0.92951442  0.41859194  0.53772602     0.39900
H851        H  0.58447405  0.07720120  0.42543683     0.44820
H852        H  0.95514221  0.46411224  0.37894766     0.43540
H853        H  0.92627072  0.42645158  0.57652466     0.43680
H854        H  0.54462999  0.04904511  0.62137419     0.44030
C855        C  0.99029903  0.22906373  0.37685119     0.03590
C856        C  0.99634651  0.25797982  0.39380262    -0.12560
C857        C  0.00123417  0.28589711  0.37517812     0.01090
C858        C  0.99974216  0.28441514  0.33955237    -0.11090
C859        C  0.99285286  0.25586204  0.32253131     0.03580
C860        C  0.98834342  0.22823074  0.34132115    -0.10510
H861        H  0.99736983  0.25861132  0.42125676     0.09170
H862        H  0.00403500  0.30562863  0.32486145     0.06700
H863        H  0.98318113  0.20595478  0.32833528     0.06550
C864        C  0.71989678  0.00034837  0.37509869     0.03590
C865        C  0.74727388  0.00897850  0.39400447    -0.12560
C866        C  0.77645873  0.01553751  0.37782553     0.01090
C867        C  0.77750267  0.01503001  0.34212112    -0.11090
C868        C  0.75023635  0.00710327  0.32279118     0.03580
C869        C  0.72187324  0.99930272  0.33952940    -0.10510
H870        H  0.74577229  0.01124489  0.42130572     0.09170
H871        H  0.79975170  0.01992497  0.32928728     0.06700
H872        H  0.70092917  0.99304722  0.32459713     0.06550
C873        C  0.72117482  0.00174872  0.62592736     0.03590
C874        C  0.74832800  0.00805513  0.60627555    -0.12560
C875        C  0.77756562  0.01669990  0.62181957     0.01090
C876        C  0.77930167  0.01978248  0.65736298    -0.11090
C877        C  0.75241547  0.01340121  0.67730629     0.03580
C878        C  0.72395988  0.00342592  0.66142632    -0.10510
H879        H  0.74667044  0.00687469  0.57886033     0.09170
H880        H  0.80161354  0.02675885  0.66948346     0.06700
H881        H  0.70372956  0.99707986  0.67699501     0.06550
C882        C  0.99325547  0.23044163  0.62459401     0.03590
C883        C  0.99813215  0.25853700  0.60631274    -0.12560
C884        C  0.00338331  0.28746194  0.62362341     0.01090
C885        C  0.00342725  0.28784040  0.65926421    -0.11090
C886        C  0.99720599  0.26031638  0.67769479     0.03580
C887        C  0.99239055  0.23161366  0.66018013    -0.10510
H888        H  0.99792062  0.25776762  0.57885131     0.09170
H889        H  0.00758549  0.30997045  0.67285367     0.06700
H890        H  0.98844440  0.20996806  0.67424364     0.06550
C891        C  0.75052989  0.49037386  0.11991615     0.03590
C892        C  0.74261359  0.01949640  0.10483703    -0.12560
C893        C  0.73506850  0.04622206  0.12490292     0.01090
C894        C  0.73594327  0.04331783  0.16048584    -0.11090
C895        C  0.74500623  0.01489723  0.17594612     0.03580
C896        C  0.75169519  0.48846453  0.15545728    -0.10510
H897        H  0.74300975  0.02137514  0.07748868     0.09170
H898        H  0.72926482  0.06320819  0.17638195     0.06700
H899        H  0.75751176  0.46617739  0.16732601     0.06550
O900        O  0.72603782  0.34941075  0.93687396    -0.74840
O901        O  0.77457393  0.35769251  0.96209654    -0.53740
C902        C  0.75124321  0.36630988  0.94284989     0.78890
O903        O  0.65627933  0.27689721  0.06566672    -0.59440
O904        O  0.64659906  0.22939574  0.03925379    -0.52470
C905        C  0.63872069  0.25234433  0.05932840     0.70910
O906        O  0.72970022  0.35428716  0.05825873    -0.73990
O907        O  0.77854649  0.35864635  0.03331808    -0.54560
C908        C  0.75556257  0.36955025  0.05129622     0.76910
O909        O  0.65085892  0.27341909  0.93967485    -0.59140
O910        O  0.64549661  0.22559328  0.96627385    -0.52260
C911        C  0.63526488  0.24800694  0.94717734     0.73500
Zr912      Zr  0.70273867  0.29810750  0.95033065     2.54710
O913        O  0.66143962  0.33810471  0.94696388    -0.79700
O914        O  0.70499055  0.29259379  0.88888012    -0.93120
Zr915      Zr  0.70653150  0.30135572  0.05034712     2.64680
O916        O  0.66608749  0.34221974  0.05513060    -0.98080
O917        O  0.71377709  0.29979885  0.11163003    -0.80140
O918        O  0.72628644  0.32189522  0.99907347    -0.83490
O919        O  0.68252746  0.27783562  0.00160465    -2.18200
O920        O  0.73345501  0.19227734  0.92693906    -0.66880
O921        O  0.70091435  0.17362256  0.96780450    -0.51450
C922        C  0.71772161  0.16972914  0.94078301     0.71880
O923        O  0.82333184  0.25859499  0.06020074    -0.59790
O924        O  0.82959288  0.30606242  0.03321241    -0.51770
C925        C  0.83932954  0.28362360  0.05255558     0.73690
O926        O  0.74607903  0.18613553  0.06727915    -0.71190
O927        O  0.69858868  0.17647562  0.04034116    -0.49860
C928        C  0.72106582  0.16900359  0.06128759     0.75070
O929        O  0.81857206  0.25669070  0.93473339    -0.66520
O930        O  0.82786092  0.30434650  0.96096338    -0.53710
C931        C  0.83575091  0.28154448  0.94077912     0.73450
Zr932      Zr  0.76801486  0.23320714  0.95019111     2.77540
O933        O  0.80323493  0.18779119  0.95460336    -0.97270
O934        O  0.77402886  0.23283052  0.88884846    -0.78090
Zr935      Zr  0.77096649  0.23568729  0.05032792     2.70070
O936        O  0.81062143  0.19418321  0.05484601    -0.79330
O937        O  0.76921813  0.24337496  0.11153613    -0.98420
Zr938      Zr  0.78192324  0.31121588  0.99796979     2.21500
Zr939      Zr  0.69268764  0.22188994  0.00239922     2.11130
O940        O  0.74853568  0.21149792  0.00118636    -2.47110
O941        O  0.79204782  0.25577504  0.99918715    -0.79130
O942        O  0.71255476  0.24295688  0.95036573    -0.71320
O943        O  0.76181573  0.29109412  0.05032158    -2.32280
O944        O  0.75820890  0.28829941  0.94790474    -2.28490
O945        O  0.71570032  0.24586558  0.05234366    -0.73080
H946        H  0.65993420  0.28192870  0.00216889     0.78910
H947        H  0.77221186  0.30127910  0.06954244     0.80000
H948        H  0.75258115  0.18899136  0.00141279     0.82230
H949        H  0.76730172  0.29735421  0.92768664     0.79830
H950        H  0.73088292  0.31559198  0.11657659     0.42870
H951        H  0.74728365  0.23695312  0.11787528     0.41840
H952        H  0.81571457  0.18868156  0.03104234     0.41520
H953        H  0.78889910  0.16903797  0.95606484     0.39450
H954        H  0.75670706  0.24656284  0.88049822     0.42580
H955        H  0.72392955  0.30524091  0.88219408     0.37370
H956        H  0.65960057  0.34628877  0.97048091     0.43480
H957        H  0.64845840  0.33505687  0.03995226     0.39900
H958        H  0.81303676  0.18595088  0.93191432     0.44820
H959        H  0.68661511  0.30492718  0.88052624     0.43540
H960        H  0.65752183  0.34007741  0.07833911     0.43680
H961        H  0.78289524  0.22642458  0.12069819     0.44030
C962        C  0.95835526  0.26767460  0.12217341     0.03590
C963        C  0.95755763  0.26363089  0.15758478    -0.12560
C964        C  0.98568032  0.25794033  0.17609676     0.01090
C965        C  0.51450270  0.25495757  0.15863438    -0.11090
C966        C  0.51543834  0.25761323  0.12334599     0.03580
C967        C  0.98753763  0.26421772  0.10522034    -0.10510
H968        H  0.93502001  0.26452102  0.17074972     0.09170
H969        H  0.53653032  0.25118201  0.17251747     0.06700
H970        H  0.98887825  0.26761967  0.07806344     0.06550
C971        C  0.74808185  0.48911643  0.87746277     0.03590
C972        C  0.75224885  0.48995632  0.84211924    -0.12560
C973        C  0.74875962  0.01824105  0.82414151     0.01090
C974        C  0.74111563  0.04598986  0.84202375    -0.11090
C975        C  0.73762173  0.04608709  0.87753257     0.03580
C976        C  0.74120127  0.01739874  0.89519606    -0.10310
H977        H  0.75737841  0.46821042  0.82844844     0.09170
H978        H  0.73811543  0.06783954  0.82814651     0.06700
H979        H  0.73855554  0.01699234  0.92249013     0.06550
C980        C  0.95838146  0.27290743  0.87528682     0.03590
C981        C  0.96100828  0.27481912  0.83988916    -0.12560
C982        C  0.98996710  0.26868229  0.82380260     0.01090
C983        C  0.51691470  0.26173424  0.84344056    -0.11090
C984        C  0.51498216  0.25973664  0.87890144     0.03580
C985        C  0.98554348  0.26549681  0.89468700    -0.10510
H986        H  0.94038390  0.28093610  0.82466978     0.09170
H987        H  0.53940600  0.25761675  0.83092956     0.06700
H988        H  0.98353420  0.26330224  0.92193992     0.06550
C989        C  0.70359880  0.11098268  0.93541369    -0.20850
C990        C  0.72091612  0.13778150  0.92441490    -0.08890
C991        C  0.74407401  0.13335997  0.89888438     0.29970
C992        C  0.74952372  0.10351549  0.88506111    -0.20850
C993        C  0.73196888  0.07689721  0.89531826    -0.08910
C994        C  0.70891093  0.08078652  0.92088940     0.29970
F995        F  0.69100587  0.05571307  0.93121547    -0.19430
H996        H  0.68598719  0.11336799  0.95519365     0.18340
H997        H  0.76790395  0.10125027  0.86604729     0.18340
F998        F  0.76241513  0.15768401  0.88737584    -0.19420
C999        C  0.73257997  0.40279877  0.89770156    -0.20850
C1000       C  0.75238149  0.39780654  0.92608677    -0.08890
C1001       C  0.77087555  0.42350603  0.93877505     0.29970
C1002       C  0.76915528  0.45343149  0.92336517    -0.20850
C1003       C  0.74929732  0.45807282  0.89496028    -0.08910
C1004       C  0.73096156  0.43239625  0.88240435     0.29970
F1005       F  0.71077461  0.43609238  0.85567004    -0.19430
H1006       H  0.71793705  0.38368970  0.88727449     0.18340
H1007       H  0.78354130  0.47290787  0.93338579     0.18340
F1008       F  0.78989595  0.42002426  0.96646263    -0.19420
C1009       C  0.87725434  0.30085213  0.09775770    -0.20850
C1010       C  0.87159140  0.28524622  0.06678048    -0.08890
C1011       C  0.89496212  0.26542954  0.05319955     0.29970
C1012       C  0.92327988  0.26036191  0.07101321    -0.20850
C1013       C  0.92882661  0.27500669  0.10274039    -0.08910
C1014       C  0.90575358  0.29603188  0.11559649     0.29970
F1015       F  0.91049406  0.31171372  0.14545982    -0.19430
H1016       H  0.85904753  0.31570016  0.10878306     0.18340
H1017       H  0.94028966  0.24386712  0.06055364     0.18340
F1018       F  0.88956916  0.24962006  0.02350843    -0.19420
C1019       C  0.55342870  0.23059195  0.08423957    -0.20850
C1020       C  0.54631394  0.25601892  0.10602727    -0.08890
C1021       C  0.56932277  0.27960269  0.11245703     0.29970
C1022       C  0.59921116  0.27765857  0.09764154    -0.20850
C1023       C  0.60696543  0.25215177  0.07587858    -0.08910
C1024       C  0.58359476  0.22852221  0.06925613     0.29970
F1025       F  0.58967256  0.20361297  0.04833641    -0.19430
H1026       H  0.53573410  0.21218670  0.07921225     0.18340
H1027       H  0.61622472  0.29654087  0.10322201     0.18340
F1028       F  0.56268796  0.30479627  0.13283980    -0.19420
C1029       C  0.92355932  0.29532633  0.92123630    -0.20850
C1030       C  0.92681077  0.27690642  0.89152007    -0.08890
C1031       C  0.89964010  0.26172835  0.87757319     0.29970
C1032       C  0.87010860  0.26484036  0.89302035    -0.20850
C1033       C  0.86676368  0.28270008  0.92305283    -0.08910
C1034       C  0.89378094  0.29827141  0.93693950     0.29970
F1035       F  0.89178206  0.31503534  0.96638208    -0.19430
H1036       H  0.94415383  0.30724234  0.93242858     0.18340
H1037       H  0.84982532  0.25240987  0.88178180     0.18340
F1038       F  0.90177479  0.24254054  0.84984589    -0.19420
C1039       C  0.59563674  0.22696479  0.90522525    -0.20850
C1040       C  0.60266165  0.24592834  0.93366052    -0.08890
C1041       C  0.57968720  0.26696244  0.94599787     0.29970
C1042       C  0.55062044  0.27024150  0.92896998    -0.20850
C1043       C  0.54402449  0.25266063  0.89924708    -0.08910
C1044       C  0.56646616  0.23010968  0.88814723     0.29970
F1045       F  0.56054390  0.21151882  0.86046918    -0.19430
H1046       H  0.61327979  0.21077903  0.89538892     0.18340
H1047       H  0.53397336  0.28776845  0.93809646     0.18340
F1048       F  0.58604637  0.28540985  0.97369761    -0.19420
C1049       C  0.74005287  0.10550888  0.12516341    -0.20850
C1050       C  0.72819344  0.07774550  0.10930383    -0.08890
C1051       C  0.71061686  0.08082273  0.07877402     0.29970
C1052       C  0.70654760  0.11080356  0.06398796    -0.20850
C1053       C  0.71971086  0.13822321  0.07939541    -0.08910
C1054       C  0.73561864  0.13523524  0.11077352     0.29970
F1055       F  0.74770996  0.16112624  0.12735176    -0.19430
H1056       H  0.75383678  0.10429469  0.14843107     0.18340
H1057       H  0.69420641  0.11239506  0.03983973     0.18340
F1058       F  0.69736637  0.05500848  0.06314038    -0.19420
C1059       C  0.73421512  0.45398310  0.07220699    -0.20850
C1060       C  0.75554854  0.46129388  0.09888965    -0.08890
C1061       C  0.77957772  0.43927291  0.10691702     0.29970
C1062       C  0.78081641  0.40995900  0.08990350    -0.20850
C1063       C  0.75814805  0.40213617  0.06483258    -0.08910
C1064       C  0.73538552  0.42465789  0.05544468     0.29970
F1065       F  0.71363449  0.41782588  0.03068469    -0.19430
H1066       H  0.71550396  0.47032355  0.06545299     0.18340
H1067       H  0.79853973  0.39280965  0.09736943     0.18340
F1068       F  0.80147504  0.44576323  0.13162373    -0.19420
C1069       C  0.96874936  0.24956006  0.76797392    -0.20850
C1070       C  0.99156946  0.26743376  0.78636432    -0.08890
C1071       C  0.51622278  0.28291419  0.76885693     0.29970
C1072       C  0.51820613  0.28003180  0.73364698    -0.20850
C1073       C  0.99549643  0.26198496  0.71519819    -0.08910
C1074       C  0.97056165  0.24687452  0.73273461     0.29970
F1075       F  0.94743481  0.23023932  0.71582256    -0.19430
H1076       H  0.94960637  0.23736985  0.78100205     0.18340
H1077       H  0.53760818  0.29193095  0.72076235     0.18340
F1078       F  0.53800671  0.30133439  0.78568707    -0.19420
C1079       C  0.72845592  0.03450922  0.76712851    -0.20850
C1080       C  0.75142588  0.01859066  0.78650611    -0.08890
C1081       C  0.77621191  0.50276034  0.76956434     0.29970
C1082       C  0.77714765  0.50202427  0.73402982    -0.20850
C1083       C  0.75342135  0.01694611  0.71479973    -0.08910
C1084       C  0.72943597  0.03382275  0.73174098     0.29970
F1085       F  0.70680853  0.04961322  0.71402318    -0.19430
H1086       H  0.70915341  0.04691304  0.77939676     0.18340
H1087       H  0.79592075  0.48904100  0.72151054     0.18340
F1088       F  0.79962165  0.48815600  0.78729665    -0.19420
C1089       C  0.73442252  0.48609411  0.23015636    -0.20850
C1090       C  0.74723702  0.01263973  0.21354518    -0.08890
C1091       C  0.76255197  0.03656005  0.23308630     0.29970
C1092       C  0.76418106  0.03420688  0.26845178    -0.20850
C1093       C  0.75070916  0.00799034  0.28508116    -0.08910
C1094       C  0.73621374  0.48365743  0.26545277     0.29970
F1095       F  0.72401864  0.45730659  0.28033463    -0.19430
H1096       H  0.72260401  0.46729176  0.21579434     0.18340
H1097       H  0.77544545  0.05326225  0.28293749     0.18340
F1098       F  0.77642059  0.06198756  0.21800775    -0.19420
C1099       C  0.97090913  0.27765966  0.26873839    -0.20850
C1100       C  0.98996588  0.25522216  0.28512819    -0.08890
C1101       C  0.50655281  0.23288937  0.26556803     0.29970
C1102       C  0.50421298  0.23328212  0.23022060    -0.20850
C1103       C  0.98556846  0.25608434  0.21368639    -0.08910
C1104       C  0.96871124  0.27821410  0.23339646     0.29970
F1105       F  0.95127074  0.30131294  0.21861094    -0.19430
H1106       H  0.95790889  0.29503905  0.28340150     0.18340
H1107       H  0.51737394  0.21593640  0.21569770     0.18340
F1108       F  0.52602818  0.21153801  0.28052929    -0.19420
C1109       C  0.52922553  0.35131015  0.56100990    -0.20850
C1110       C  0.51343080  0.37785256  0.57437622    -0.08890
C1111       C  0.99495761  0.37413955  0.60383222     0.29970
C1112       C  0.99132236  0.34461678  0.61853327    -0.20850
C1113       C  0.00690892  0.31798543  0.60545788    -0.08910
C1114       C  0.52611282  0.32152616  0.57648302     0.29970
F1115       F  0.54220318  0.29650821  0.56347120    -0.19430
H1116       H  0.54341556  0.35346774  0.53828963     0.18340
H1117       H  0.97598463  0.34266779  0.64041692     0.18340
F1118       F  0.98008824  0.39908086  0.61868442    -0.19420
C1119       C  0.96840320  0.19389360  0.58088399    -0.20850
C1120       C  0.99078162  0.19938796  0.60706386    -0.08890
C1121       C  0.51093802  0.17478182  0.61698427     0.29970
C1122       C  0.50871249  0.14526124  0.60118488    -0.20850
C1123       C  0.98653573  0.13940310  0.57480412    -0.08910
C1124       C  0.96611050  0.16405345  0.56488743     0.29970
F1125       F  0.94446697  0.15964006  0.53946656    -0.19430
H1126       H  0.95260408  0.21265457  0.57302196     0.18340
H1127       H  0.52485986  0.12700216  0.60958621     0.18340
F1128       F  0.53351464  0.17953116  0.64144631    -0.19420
C1129       C  0.52977249  0.35187905  0.43556461    -0.20850
C1130       C  0.51268378  0.37781519  0.42290411    -0.08890
C1131       C  0.99299008  0.37313674  0.39405796     0.29970
C1132       C  0.98944288  0.34325848  0.37939728    -0.20850
C1133       C  0.00591439  0.31717944  0.39219081    -0.08910
C1134       C  0.52651318  0.32173888  0.42030224     0.29970
F1135       F  0.54371382  0.29730452  0.43274387    -0.19430
H1136       H  0.54502768  0.35473817  0.45769633     0.18340
H1137       H  0.97322980  0.34049370  0.35802346     0.18340
F1138       F  0.97663621  0.39737494  0.37991922    -0.19420
C1139       C  0.51085124  0.17552714  0.38687036    -0.20850
C1140       C  0.98896823  0.19893257  0.39544694    -0.08890
C1141       C  0.96600443  0.19272160  0.42039186     0.29970
C1142       C  0.96506463  0.16308418  0.43637576    -0.20850
C1143       C  0.98715993  0.13948008  0.42775238    -0.08910
C1144       C  0.51015108  0.14624643  0.40263427     0.29970
F1145       F  0.53210676  0.12463939  0.39279103    -0.19430
H1146       H  0.52870881  0.18000328  0.36770292     0.18340
H1147       H  0.94721756  0.15868992  0.45553214     0.18340
F1148       F  0.94411454  0.21492968  0.42859808    -0.19420
C1149       C  0.63241516  0.00492552  0.60783240    -0.20850
C1150       C  0.62900150  0.48687677  0.57780422    -0.08890
C1151       C  0.65609203  0.47182022  0.56458843     0.29970
C1152       C  0.68601720  0.47601495  0.58058850    -0.20850
C1153       C  0.68939386  0.99536017  0.60982353    -0.08910
C1154       C  0.66201408  0.00965771  0.62322837     0.29970
F1155       F  0.66391959  0.03003714  0.65005803    -0.19430
H1156       H  0.61215880  0.01689191  0.61881202     0.18340
H1157       H  0.70663992  0.46456916  0.56979827     0.18340
F1158       F  0.65407163  0.45449878  0.53546332    -0.19420
C1159       C  0.84523840  0.49896366  0.56199541    -0.20850
C1160       C  0.86513781  0.02574878  0.56628817    -0.08890
C1161       C  0.85503479  0.05085841  0.58712606     0.29970
C1162       C  0.82609160  0.04828571  0.60467428    -0.20850
C1163       C  0.80667787  0.02095047  0.60108775    -0.08910
C1164       C  0.81625602  0.49659829  0.57897383     0.29970
F1165       F  0.79853932  0.46959521  0.57539235    -0.19430
H1166       H  0.85270113  0.47927909  0.54617233     0.18340
H1167       H  0.81909684  0.06732960  0.62158208     0.18340
F1168       F  0.87398750  0.07681577  0.59218515    -0.19420
C1169       C  0.65585656  0.47380682  0.43805321    -0.20850
C1170       C  0.62831842  0.48630105  0.42293825    -0.08890
C1171       C  0.63106920  0.00134964  0.39130820     0.29970
C1172       C  0.66071117  0.00569432  0.37641087    -0.20850
C1173       C  0.68857721  0.99432689  0.39179905    -0.08910
C1174       C  0.68578821  0.47764188  0.42259899     0.29970
F1175       F  0.71183626  0.46507369  0.43780003    -0.19430
H1176       H  0.65441620  0.46221024  0.46239727     0.18340
H1177       H  0.66177914  0.01891476  0.35302850     0.18340
F1178       F  0.60504099  0.01284020  0.37500514    -0.19420
C1179       C  0.82873424  0.04449923  0.38789762    -0.20850
C1180       C  0.80618596  0.02144270  0.39804634    -0.08890
C1181       C  0.81344948  0.00238006  0.42620514     0.29970
C1182       C  0.84291683  0.00546097  0.44267766    -0.20850
C1183       C  0.86569276  0.02757991  0.43171556    -0.08910
C1184       C  0.85831649  0.04754016  0.40456104     0.29970
F1185       F  0.88038125  0.06848395  0.39287336    -0.19430
H1186       H  0.82377630  0.05962245  0.36648195     0.18340
H1187       H  0.84853153  0.98958370  0.46330168     0.18340
F1188       F  0.79309491  0.97916884  0.43644376    -0.19420
O1189       O  0.91296908  0.99981331  0.43948672    -0.74840
O1190       O  0.90932491  0.54916944  0.46360271    -0.53740
C1191       C  0.89822221  0.52580165  0.44564177     0.78890
O1192       O  0.98900412  0.92612554  0.56296571    -0.59440
O1193       O  0.53556387  0.91594530  0.53579500    -0.52470
C1194       C  0.51309850  0.90862492  0.55657012     0.70910
O1195       O  0.91270277  0.99868005  0.55786016    -0.73990
O1196       O  0.90887034  0.54839664  0.53571916    -0.54560
C1197       C  0.89771034  0.52459441  0.55242253     0.76910
O1198       O  0.98841879  0.92639763  0.43446747    -0.59140
O1199       O  0.53500057  0.91620954  0.46221409    -0.52260
C1200       C  0.51248544  0.90884900  0.44095699     0.73500
Zr1201     Zr  0.96498877  0.97659459  0.44936990     2.54710
O1202       O  0.92407968  0.93535212  0.44443892    -0.79700
O1203       O  0.96773076  0.98233043  0.38806724    -0.93120
Zr1204     Zr  0.96496487  0.97614856  0.54908210     2.64680
O1205       O  0.92330633  0.93565212  0.55371441    -0.98080
O1206       O  0.96813452  0.98227515  0.61048529    -0.80140
O1207       O  0.94355420  0.99845374  0.49935458    -0.83490
O1208       O  0.98597606  0.95340570  0.49908626    -2.18200
O1209       O  0.58144637  0.51321716  0.43495738    -0.66880
O1210       O  0.58953478  0.96693320  0.46297689    -0.51450
C1211       C  0.59775890  0.98842699  0.44148607     0.71880
O1212       O  0.51123915  0.59080880  0.56378868    -0.59790
O1213       O  0.96386193  0.59989097  0.53718774    -0.51770
C1214       C  0.98689866  0.60806131  0.55738189     0.73690
O1215       O  0.58153192  0.51315679  0.56625125    -0.71190
O1216       O  0.58973764  0.96702205  0.53721084    -0.49860
C1217       C  0.59808600  0.98856646  0.55917397     0.75070
O1218       O  0.51156471  0.59093902  0.43898389    -0.66520
O1219       O  0.96412569  0.60024699  0.46458080    -0.53710
C1220       C  0.98731997  0.60828888  0.44499437     0.73450
Zr1221     Zr  0.53306158  0.53957434  0.45098326     2.77540
O1222       O  0.57573451  0.57920122  0.44861036    -0.97270
O1223       O  0.52781236  0.53714426  0.38948364    -0.78090
Zr1224     Zr  0.53275196  0.53924933  0.55084394     2.70070
O1225       O  0.57600695  0.57801080  0.55609372    -0.79330
O1226       O  0.52696056  0.53573901  0.61207662    -0.98420
Zr1227     Zr  0.95629081  0.55366671  0.50027280     2.21500
Zr1228     Zr  0.54266578  0.96230187  0.49974595     2.11130
O1229       O  0.55502866  0.51779304  0.50081134    -2.47110
O1230       O  0.51251906  0.56249469  0.50100342    -0.79130
O1231       O  0.52102150  0.98469656  0.44902056    -0.71320
O1232       O  0.97689299  0.53106419  0.55133726    -2.32280
O1233       O  0.97718855  0.53146452  0.44905659    -2.28490
O1234       O  0.52094255  0.98429076  0.55075989    -0.73080
H1235       H  0.98092160  0.93099575  0.49873679     0.78910
H1236       H  0.96756090  0.54075213  0.57116621     0.80000
H1237       H  0.57780578  0.52147607  0.50103302     0.82230
H1238       H  0.96799697  0.54137997  0.42932810     0.79830
H1239       H  0.95099863  0.99732991  0.61623466     0.42870
H1240       H  0.53305915  0.51372753  0.61754019     0.41840
H1241       H  0.58147842  0.58322334  0.53238868     0.41520
H1242       H  0.59275208  0.57112911  0.46367610     0.39450
H1243       H  0.53137155  0.51458326  0.38356675     0.42580
H1244       H  0.95456719  0.00107989  0.38298760     0.37370
H1245       H  0.91637417  0.93253510  0.46791090     0.43480
H1246       H  0.92951441  0.91859195  0.53772601     0.39900
H1247       H  0.58447406  0.57720119  0.42543683     0.44820
H1248       H  0.95514224  0.96411225  0.37894766     0.43540
H1249       H  0.92627071  0.92645159  0.57652466     0.43680
H1250       H  0.54462999  0.54904510  0.62137418     0.44030
C1251       C  0.99029905  0.72906373  0.37685121     0.03590
C1252       C  0.99634652  0.75797982  0.39380263    -0.12560
C1253       C  0.00123418  0.78589711  0.37517814     0.01090
C1254       C  0.99974216  0.78441514  0.33955238    -0.11090
C1255       C  0.99285288  0.75586204  0.32253132     0.03580
C1256       C  0.98834344  0.72823074  0.34132116    -0.10510
H1257       H  0.99736984  0.75861132  0.42125678     0.09170
H1258       H  0.00403500  0.80562863  0.32486146     0.06700
H1259       H  0.98318116  0.70595478  0.32833529     0.06550
C1260       C  0.71989678  0.50034837  0.37509869     0.03590
C1261       C  0.74727389  0.50897851  0.39400447    -0.12560
C1262       C  0.77645873  0.51553751  0.37782553     0.01090
C1263       C  0.77750267  0.51503002  0.34212112    -0.11090
C1264       C  0.75023636  0.50710327  0.32279119     0.03580
C1265       C  0.72187325  0.49930272  0.33952940    -0.10510
H1266       H  0.74577230  0.51124490  0.42130573     0.09170
H1267       H  0.79975171  0.51992498  0.32928729     0.06700
H1268       H  0.70092918  0.49304721  0.32459713     0.06550
C1269       C  0.72117483  0.50174871  0.62592736     0.03590
C1270       C  0.74832800  0.50805512  0.60627555    -0.12560
C1271       C  0.77756562  0.51669990  0.62181956     0.01090
C1272       C  0.77930168  0.51978249  0.65736298    -0.11090
C1273       C  0.75241547  0.51340122  0.67730628     0.03580
C1274       C  0.72395989  0.50342592  0.66142632    -0.10510
H1275       H  0.74667045  0.50687468  0.57886033     0.09170
H1276       H  0.80161355  0.52675886  0.66948346     0.06700
H1277       H  0.70372957  0.49707986  0.67699501     0.06550
C1278       C  0.99325547  0.73044163  0.62459399     0.03590
C1279       C  0.99813215  0.75853700  0.60631273    -0.12560
C1280       C  0.00338330  0.78746194  0.62362340     0.01090
C1281       C  0.00342724  0.78784040  0.65926420    -0.11090
C1282       C  0.99720598  0.76031638  0.67769478     0.03580
C1283       C  0.99239055  0.73161366  0.66018012    -0.10510
H1284       H  0.99792062  0.75776762  0.57885130     0.09170
H1285       H  0.00758547  0.80997045  0.67285366     0.06700
H1286       H  0.98844440  0.70996805  0.67424363     0.06550
C1287       C  0.75052990  0.99037386  0.11991615     0.03590
C1288       C  0.74261359  0.51949641  0.10483703    -0.12560
C1289       C  0.73506848  0.54622206  0.12490293     0.01090
C1290       C  0.73594326  0.54331783  0.16048584    -0.11090
C1291       C  0.74500623  0.51489723  0.17594612     0.03580
C1292       C  0.75169519  0.98846453  0.15545728    -0.10510
H1293       H  0.74300974  0.52137514  0.07748868     0.09170
H1294       H  0.72926480  0.56320819  0.17638196     0.06700
H1295       H  0.75751175  0.96617738  0.16732600     0.06550
O1296       O  0.72603783  0.84941074  0.93687395    -0.74840
O1297       O  0.77457393  0.85769250  0.96209654    -0.53740
C1298       C  0.75124321  0.86630987  0.94284989     0.78890
O1299       O  0.65627931  0.77689722  0.06566671    -0.59440
O1300       O  0.64659905  0.72939575  0.03925378    -0.52470
C1301       C  0.63872067  0.75234435  0.05932839     0.70910
O1302       O  0.72970022  0.85428716  0.05825871    -0.73990
O1303       O  0.77854649  0.85864634  0.03331807    -0.54560
C1304       C  0.75556257  0.86955025  0.05129622     0.76910
O1305       O  0.65085892  0.77341908  0.93967484    -0.59140
O1306       O  0.64549661  0.72559328  0.96627384    -0.52260
C1307       C  0.63526488  0.74800694  0.94717733     0.73500
Zr1308     Zr  0.70273867  0.79810748  0.95033064     2.54710
O1309       O  0.66143963  0.83810470  0.94696383    -0.79700
O1310       O  0.70499058  0.79259376  0.88888010    -0.93120
Zr1311     Zr  0.70653149  0.80135573  0.05034711     2.64680
O1312       O  0.66608748  0.84221975  0.05513056    -0.98080
O1313       O  0.71377707  0.79979887  0.11163002    -0.80140
O1314       O  0.72628644  0.82189521  0.99907346    -0.83490
O1315       O  0.68252745  0.77783562  0.00160464    -2.18200
O1316       O  0.73345497  0.69227735  0.92693906    -0.66880
O1317       O  0.70091433  0.67362256  0.96780451    -0.51450
C1318       C  0.71772159  0.66972915  0.94078301     0.71880
O1319       O  0.82333182  0.75859499  0.06020076    -0.59790
O1320       O  0.82959287  0.80606241  0.03321241    -0.51770
C1321       C  0.83932952  0.78362359  0.05255560     0.73690
O1322       O  0.74607901  0.68613553  0.06727917    -0.71190
O1323       O  0.69858866  0.67647562  0.04034117    -0.49860
C1324       C  0.72106579  0.66900359  0.06128760     0.75070
O1325       O  0.81857205  0.75669068  0.93473340    -0.66520
O1326       O  0.82786092  0.80434648  0.96096338    -0.53710
C1327       C  0.83575091  0.78154446  0.94077913     0.73450
Zr1328     Zr  0.76801486  0.73320712  0.95019112     2.77540
O1329       O  0.80323491  0.68779115  0.95460340    -0.97270
O1330       O  0.77402889  0.73283047  0.88884848    -0.78090
Zr1331     Zr  0.77096648  0.73568729  0.05032793     2.70070
O1332       O  0.81062141  0.69418321  0.05484604    -0.79330
O1333       O  0.76921809  0.74337497  0.11153614    -0.98420
Zr1334     Zr  0.78192324  0.81121587  0.99796979     2.21500
Zr1335     Zr  0.69268762  0.72188994  0.00239922     2.11130
O1336       O  0.74853566  0.71149791  0.00118637    -2.47110
O1337       O  0.79204781  0.75577502  0.99918716    -0.79130
O1338       O  0.71255476  0.74295686  0.95036573    -0.71320
O1339       O  0.76181572  0.79109412  0.05032158    -2.32280
O1340       O  0.75820891  0.78829939  0.94790474    -2.28490
O1341       O  0.71570030  0.74586559  0.05234366    -0.73080
H1342       H  0.65993419  0.78192870  0.00216887     0.78910
H1343       H  0.77221185  0.80127911  0.06954244     0.80000
H1344       H  0.75258114  0.68899135  0.00141281     0.82230
H1345       H  0.76730172  0.79735419  0.92768664     0.79830
H1346       H  0.73088290  0.81559199  0.11657658     0.42870
H1347       H  0.74728361  0.73695313  0.11787529     0.41840
H1348       H  0.81571455  0.68868155  0.03104237     0.41520
H1349       H  0.78889906  0.66903794  0.95606485     0.39450
H1350       H  0.75670714  0.74656284  0.88049822     0.42580
H1351       H  0.72392956  0.80524090  0.88219407     0.37370
H1352       H  0.65960055  0.84628876  0.97048086     0.43480
H1353       H  0.64845840  0.83505688  0.03995222     0.39900
H1354       H  0.81303677  0.68595085  0.93191438     0.44820
H1355       H  0.68661512  0.80492712  0.88052622     0.43540
H1356       H  0.65752181  0.84007743  0.07833907     0.43680
H1357       H  0.78289520  0.72642459  0.12069821     0.44030
C1358       C  0.95835525  0.76767461  0.12217343     0.03590
C1359       C  0.95755763  0.76363089  0.15758480    -0.12560
C1360       C  0.98568032  0.75794033  0.17609677     0.01090
C1361       C  0.51450270  0.75495758  0.15863438    -0.11090
C1362       C  0.51543833  0.75761324  0.12334600     0.03580
C1363       C  0.98753762  0.76421773  0.10522035    -0.10510
H1364       H  0.93502001  0.76452101  0.17074974     0.09170
H1365       H  0.53653032  0.75118202  0.17251747     0.06700
H1366       H  0.98887824  0.76761968  0.07806345     0.06550
C1367       C  0.74808186  0.98911642  0.87746277     0.03590
C1368       C  0.75224885  0.98995631  0.84211925    -0.12560
C1369       C  0.74875962  0.51824106  0.82414151     0.01090
C1370       C  0.74111564  0.54598987  0.84202374    -0.11090
C1371       C  0.73762173  0.54608710  0.87753257     0.03580
C1372       C  0.74120126  0.51739875  0.89519605    -0.10310
H1373       H  0.75737841  0.96821041  0.82844845     0.09170
H1374       H  0.73811544  0.56783955  0.82814650     0.06700
H1375       H  0.73855554  0.51699235  0.92249013     0.06550
C1376       C  0.95838145  0.77290741  0.87528681     0.03590
C1377       C  0.96100827  0.77481910  0.83988916    -0.12560
C1378       C  0.98996709  0.76868228  0.82380259     0.01090
C1379       C  0.51691470  0.76173424  0.84344055    -0.11090
C1380       C  0.51498215  0.75973663  0.87890143     0.03580
C1381       C  0.98554348  0.76549679  0.89468699    -0.10510
H1382       H  0.94038389  0.78093608  0.82466977     0.09170
H1383       H  0.53940599  0.75761675  0.83092954     0.06700
H1384       H  0.98353420  0.76330222  0.92193991     0.06550
C1385       C  0.70359879  0.61098269  0.93541369    -0.20850
C1386       C  0.72091611  0.63778151  0.92441490    -0.08890
C1387       C  0.74407401  0.63335998  0.89888439     0.29970
C1388       C  0.74952372  0.60351550  0.88506111    -0.20850
C1389       C  0.73196887  0.57689722  0.89531826    -0.08910
C1390       C  0.70891093  0.58078652  0.92088939     0.29970
F1391       F  0.69100586  0.55571307  0.93121546    -0.19430
H1392       H  0.68598718  0.61336799  0.95519365     0.18340
H1393       H  0.76790395  0.60125028  0.86604729     0.18340
F1394       F  0.76241513  0.65768402  0.88737585    -0.19420
C1395       C  0.73257997  0.90279876  0.89770157    -0.20850
C1396       C  0.75238150  0.89780653  0.92608677    -0.08890
C1397       C  0.77087557  0.92350602  0.93877505     0.29970
C1398       C  0.76915530  0.95343147  0.92336516    -0.20850
C1399       C  0.74929732  0.95807281  0.89496028    -0.08910
C1400       C  0.73096155  0.93239625  0.88240436     0.29970
F1401       F  0.71077459  0.93609238  0.85567006    -0.19430
H1402       H  0.71793704  0.88368970  0.88727450     0.18340
H1403       H  0.78354132  0.97290785  0.93338578     0.18340
F1404       F  0.78989598  0.92002424  0.96646261    -0.19420
C1405       C  0.87725432  0.80085211  0.09775774    -0.20850
C1406       C  0.87159139  0.78524622  0.06678050    -0.08890
C1407       C  0.89496211  0.76542954  0.05319957     0.29970
C1408       C  0.92327988  0.76036192  0.07101323    -0.20850
C1409       C  0.92882659  0.77500669  0.10274041    -0.08910
C1410       C  0.90575356  0.79603187  0.11559652     0.29970
F1411       F  0.91049403  0.81171370  0.14545986    -0.19430
H1412       H  0.85904750  0.81570014  0.10878310     0.18340
H1413       H  0.94028965  0.74386713  0.06055365     0.18340
F1414       F  0.88956916  0.74962007  0.02350844    -0.19420
C1415       C  0.55342869  0.73059196  0.08423958    -0.20850
C1416       C  0.54631393  0.75601894  0.10602727    -0.08890
C1417       C  0.56932276  0.77960272  0.11245701     0.29970
C1418       C  0.59921114  0.77765859  0.09764152    -0.20850
C1419       C  0.60696542  0.75215179  0.07587857    -0.08910
C1420       C  0.58359475  0.72852222  0.06925613     0.29970
F1421       F  0.58967255  0.70361298  0.04833641    -0.19430
H1422       H  0.53573409  0.71218671  0.07921226     0.18340
H1423       H  0.61622470  0.79654089  0.10322199     0.18340
F1424       F  0.56268795  0.80479629  0.13283979    -0.19420
C1425       C  0.92355931  0.79532631  0.92123630    -0.20850
C1426       C  0.92681076  0.77690640  0.89152007    -0.08890
C1427       C  0.89964010  0.76172832  0.87757319     0.29970
C1428       C  0.87010860  0.76484034  0.89302036    -0.20850
C1429       C  0.86676368  0.78270006  0.92305283    -0.08910
C1430       C  0.89378094  0.79827139  0.93693950     0.29970
F1431       F  0.89178206  0.81503532  0.96638208    -0.19430
H1432       H  0.94415383  0.80724232  0.93242858     0.18340
H1433       H  0.84982531  0.75240984  0.88178180     0.18340
F1434       F  0.90177478  0.74254052  0.84984589    -0.19420
C1435       C  0.59563675  0.72696479  0.90522523    -0.20850
C1436       C  0.60266165  0.74592834  0.93366050    -0.08890
C1437       C  0.57968720  0.76696244  0.94599785     0.29970
C1438       C  0.55062043  0.77024149  0.92896997    -0.20850
C1439       C  0.54402449  0.75266063  0.89924707    -0.08910
C1440       C  0.56646616  0.73010968  0.88814721     0.29970
F1441       F  0.56054391  0.71151882  0.86046916    -0.19430
H1442       H  0.61327979  0.71077904  0.89538890     0.18340
H1443       H  0.53397336  0.78776844  0.93809645     0.18340
F1444       F  0.58604637  0.78540985  0.97369760    -0.19420
C1445       C  0.74005284  0.60550888  0.12516342    -0.20850
C1446       C  0.72819342  0.57774550  0.10930384    -0.08890
C1447       C  0.71061685  0.58082273  0.07877403     0.29970
C1448       C  0.70654758  0.61080356  0.06398796    -0.20850
C1449       C  0.71971083  0.63822322  0.07939542    -0.08910
C1450       C  0.73561861  0.63523525  0.11077353     0.29970
F1451       F  0.74770992  0.66112625  0.12735177    -0.19430
H1452       H  0.75383675  0.60429470  0.14843108     0.18340
H1453       H  0.69420639  0.61239506  0.03983973     0.18340
F1454       F  0.69736636  0.55500848  0.06314038    -0.19420
C1455       C  0.73421513  0.95398310  0.07220698    -0.20850
C1456       C  0.75554855  0.96129387  0.09888964    -0.08890
C1457       C  0.77957772  0.93927290  0.10691702     0.29970
C1458       C  0.78081641  0.90995899  0.08990349    -0.20850
C1459       C  0.75814805  0.90213617  0.06483257    -0.08910
C1460       C  0.73538553  0.92465789  0.05544467     0.29970
F1461       F  0.71363450  0.91782588  0.03068468    -0.19430
H1462       H  0.71550396  0.97032355  0.06545298     0.18340
H1463       H  0.79853973  0.89280964  0.09736943     0.18340
F1464       F  0.80147503  0.94576322  0.13162373    -0.19420
C1465       C  0.96874935  0.74956005  0.76797391    -0.20850
C1466       C  0.99156944  0.76743375  0.78636431    -0.08890
C1467       C  0.51622276  0.78291419  0.76885693     0.29970
C1468       C  0.51820612  0.78003180  0.73364697    -0.20850
C1469       C  0.99549642  0.76198496  0.71519818    -0.08910
C1470       C  0.97056164  0.74687451  0.73273460     0.29970
F1471       F  0.94743480  0.73023931  0.71582255    -0.19430
H1472       H  0.94960636  0.73736983  0.78100204     0.18340
H1473       H  0.53760817  0.79193096  0.72076235     0.18340
F1474       F  0.53800669  0.80133440  0.78568706    -0.19420
C1475       C  0.72845592  0.53450923  0.76712850    -0.20850
C1476       C  0.75142589  0.51859067  0.78650611    -0.08890
C1477       C  0.77621191  0.00276033  0.76956434     0.29970
C1478       C  0.77714765  0.00202426  0.73402983    -0.20850
C1479       C  0.75342136  0.51694612  0.71479972    -0.08910
C1480       C  0.72943598  0.53382276  0.73174097     0.29970
F1481       F  0.70680853  0.54961323  0.71402317    -0.19430
H1482       H  0.70915341  0.54691304  0.77939675     0.18340
H1483       H  0.79592074  0.98904099  0.72151054     0.18340
F1484       F  0.79962164  0.98815598  0.78729665    -0.19420
C1485       C  0.73442251  0.98609411  0.23015636    -0.20850
C1486       C  0.74723702  0.51263973  0.21354518    -0.08890
C1487       C  0.76255197  0.53656006  0.23308630     0.29970
C1488       C  0.76418106  0.53420689  0.26845179    -0.20850
C1489       C  0.75070916  0.50799034  0.28508116    -0.08910
C1490       C  0.73621373  0.98365743  0.26545277     0.29970
F1491       F  0.72401862  0.95730659  0.28033462    -0.19430
H1492       H  0.72260399  0.96729176  0.21579433     0.18340
H1493       H  0.77544544  0.55326226  0.28293749     0.18340
F1494       F  0.77642058  0.56198757  0.21800775    -0.19420
C1495       C  0.97090914  0.77765965  0.26873841    -0.20850
C1496       C  0.98996589  0.75522216  0.28512820    -0.08890
C1497       C  0.50655283  0.73288938  0.26556803     0.29970
C1498       C  0.50421299  0.73328213  0.23022061    -0.20850
C1499       C  0.98556847  0.75608435  0.21368640    -0.08910
C1500       C  0.96871124  0.77821410  0.23339647     0.29970
F1501       F  0.95127074  0.80131294  0.21861096    -0.19430
H1502       H  0.95790889  0.79503905  0.28340152     0.18340
H1503       H  0.51737395  0.71593641  0.21569771     0.18340
F1504       F  0.52602820  0.71153802  0.28052930    -0.19420
C1505       C  0.52922553  0.85131015  0.56100990    -0.20850
C1506       C  0.51343079  0.87785256  0.57437621    -0.08890
C1507       C  0.99495759  0.87413955  0.60383221     0.29970
C1508       C  0.99132235  0.84461678  0.61853326    -0.20850
C1509       C  0.00690891  0.81798543  0.60545787    -0.08910
C1510       C  0.52611282  0.82152616  0.57648302     0.29970
F1511       F  0.54220319  0.79650822  0.56347119    -0.19430
H1512       H  0.54341556  0.85346775  0.53828963     0.18340
H1513       H  0.97598461  0.84266778  0.64041691     0.18340
F1514       F  0.98008822  0.89908086  0.61868441    -0.19420
C1515       C  0.96840320  0.69389360  0.58088397    -0.20850
C1516       C  0.99078162  0.69938796  0.60706385    -0.08890
C1517       C  0.51093804  0.67478182  0.61698425     0.29970
C1518       C  0.50871251  0.64526124  0.60118486    -0.20850
C1519       C  0.98653574  0.63940310  0.57480411    -0.08910
C1520       C  0.96611051  0.66405345  0.56488741     0.29970
F1521       F  0.94446699  0.65964006  0.53946654    -0.19430
H1522       H  0.95260409  0.71265457  0.57302194     0.18340
H1523       H  0.52485989  0.62700216  0.60958619     0.18340
F1524       F  0.53351466  0.67953117  0.64144628    -0.19420
C1525       C  0.52977249  0.85187906  0.43556462    -0.20850
C1526       C  0.51268378  0.87781519  0.42290412    -0.08890
C1527       C  0.99299007  0.87313674  0.39405797     0.29970
C1528       C  0.98944287  0.84325848  0.37939730    -0.20850
C1529       C  0.00591439  0.81717944  0.39219083    -0.08910
C1530       C  0.52651319  0.82173888  0.42030225     0.29970
F1531       F  0.54371383  0.79730453  0.43274388    -0.19430
H1532       H  0.54502768  0.85473818  0.45769634     0.18340
H1533       H  0.97322979  0.84049369  0.35802347     0.18340
F1534       F  0.97663619  0.89737494  0.37991924    -0.19420
C1535       C  0.51085126  0.67552714  0.38687038    -0.20850
C1536       C  0.98896825  0.69893257  0.39544695    -0.08890
C1537       C  0.96600444  0.69272159  0.42039185     0.29970
C1538       C  0.96506464  0.66308417  0.43637575    -0.20850
C1539       C  0.98715995  0.63948008  0.42775239    -0.08910
C1540       C  0.51015111  0.64624644  0.40263428     0.29970
F1541       F  0.53210679  0.62463940  0.39279105    -0.19430
H1542       H  0.52870884  0.68000329  0.36770294     0.18340
H1543       H  0.94721755  0.65868990  0.45553212     0.18340
F1544       F  0.94411453  0.71492966  0.42859806    -0.19420
C1545       C  0.63241516  0.50492551  0.60783239    -0.20850
C1546       C  0.62900149  0.98687678  0.57780422    -0.08890
C1547       C  0.65609202  0.97182023  0.56458844     0.29970
C1548       C  0.68601720  0.97601495  0.58058851    -0.20850
C1549       C  0.68939387  0.49536017  0.60982353    -0.08910
C1550       C  0.66201409  0.50965771  0.62322837     0.29970
F1551       F  0.66391960  0.53003714  0.65005802    -0.19430
H1552       H  0.61215881  0.51689190  0.61881201     0.18340
H1553       H  0.70663991  0.96456917  0.56979828     0.18340
F1554       F  0.65407162  0.95449879  0.53546332    -0.19420
C1555       C  0.84523839  0.99896367  0.56199541    -0.20850
C1556       C  0.86513781  0.52574878  0.56628817    -0.08890
C1557       C  0.85503479  0.55085840  0.58712605     0.29970
C1558       C  0.82609161  0.54828571  0.60467427    -0.20850
C1559       C  0.80667788  0.52095047  0.60108775    -0.08910
C1560       C  0.81625601  0.99659830  0.57897383     0.29970
F1561       F  0.79853931  0.96959522  0.57539234    -0.19430
H1562       H  0.85270112  0.97927909  0.54617232     0.18340
H1563       H  0.81909684  0.56732960  0.62158207     0.18340
F1564       F  0.87398751  0.57681577  0.59218514    -0.19420
C1565       C  0.65585655  0.97380682  0.43805321    -0.20850
C1566       C  0.62831841  0.98630106  0.42293825    -0.08890
C1567       C  0.63106921  0.50134963  0.39130819     0.29970
C1568       C  0.66071117  0.50569431  0.37641086    -0.20850
C1569       C  0.68857722  0.49432688  0.39179905    -0.08910
C1570       C  0.68578820  0.97764188  0.42259899     0.29970
F1571       F  0.71183625  0.96507368  0.43780002    -0.19430
H1572       H  0.65441619  0.96221024  0.46239727     0.18340
H1573       H  0.66177914  0.51891474  0.35302849     0.18340
F1574       F  0.60504099  0.51284017  0.37500513    -0.19420
C1575       C  0.82873424  0.54449924  0.38789763    -0.20850
C1576       C  0.80618596  0.52144270  0.39804634    -0.08890
C1577       C  0.81344949  0.50238006  0.42620514     0.29970
C1578       C  0.84291684  0.50546096  0.44267765    -0.20850
C1579       C  0.86569276  0.52757991  0.43171556    -0.08910
C1580       C  0.85831650  0.54754017  0.40456104     0.29970
F1581       F  0.88038126  0.56848395  0.39287336    -0.19430
H1582       H  0.82377631  0.55962246  0.36648195     0.18340
H1583       H  0.84853153  0.48958369  0.46330167     0.18340
F1584       F  0.79309491  0.47916885  0.43644376    -0.19420
loop_ 
_geom_bond_atom_site_label_1 
_geom_bond_atom_site_label_2 
_geom_bond_distance 
_geom_bond_site_symmetry_2 
_ccdc_geom_bond_type 
O1          Zr13   2.431       .  S
O1          C399   1.286       .  A
O2          Zr39   2.439       .  S
O2            C3   1.288       .  A
C3          O397   1.286   1_545  A
C3          C391   1.469       .  S
O4          Zr16   2.413       .  S
O4          C798   1.283       .  A
O5          Zr40   2.443       .  S
O5            C6   1.290       .  A
C6          O796   1.283   1_455  A
C6          C318   1.481       .  S
O7          Zr16   2.424       .  S
O7          C405   1.285       .  A
O8          Zr39   2.448       .  S
O8            C9   1.290       .  A
C9          O403   1.285   1_545  A
C9          C368   1.476       .  S
O10         Zr13   2.412       .  S
O10         C804   1.283       .  A
O11         Zr40   2.448       .  S
O11          C12   1.291       .  A
C12         O802   1.283   1_455  A
C12         C338   1.483       .  S
Zr13         O14   2.434       .  S
Zr13         O15   2.435       .  S
Zr13         O19   2.357       .  S
Zr13         O20   2.367       .  S
Zr13        O835   2.370       .  S
Zr13        O441   2.363       .  S
O14          H57   0.990       .  S
O15          H56   0.990       .  S
O15          H60   0.990       .  S
Zr16         O17   2.437       .  S
Zr16         O18   2.435       .  S
Zr16         O20   2.365       .  S
Zr16         O19   2.358       .  S
Zr16        O440   2.363       .  S
Zr16        O838   2.368       .  S
O17          H58   0.990       .  S
O17          H61   0.990       .  S
O18          H51   0.990       .  S
O19        Zr435   2.381       .  S
O20        Zr832   2.402       .  S
O20          H47   0.966       .  S
O21         Zr33   2.409       .  S
O21         C419   1.282   1_545  A
O22         Zr40   2.458       .  S
O22          C23   1.292       .  A
C23         O417   1.282       .  A
C23         C378   1.483       .  S
O24         Zr36   2.414       .  S
O24         C818   1.285   1_455  A
O25         Zr39   2.438       .  S
O25          C26   1.289       .  A
C26         O816   1.285       .  A
C26         C331   1.484       .  S
O27         Zr36   2.409       .  S
O27         C425   1.283   1_545  A
O28         Zr40   2.461       .  S
O28          C29   1.293       .  A
C29         O423   1.283       .  A
C29         C358   1.488       .  S
O30         Zr33   2.404       .  S
O30         C824   1.281   1_455  A
O31         Zr39   2.446       .  S
O31          C32   1.291       .  A
C32         O822   1.281       .  A
C32         C351   1.485       .  S
Zr33         O34   2.437       .  S
Zr33         O35   2.434       .  S
Zr33         O41   2.361       .  S
Zr33         O42   2.361       .  S
Zr33        O837   2.364   1_455  S
Zr33        O439   2.362   1_545  S
O34          H54   0.990       .  S
O34          H59   0.990       .  S
O35          H55   0.990       .  S
Zr36         O37   2.433       .  S
Zr36         O38   2.434       .  S
Zr36         O42   2.360       .  S
Zr36         O41   2.366       .  S
Zr36        O442   2.363   1_545  S
Zr36        O836   2.364   1_455  S
O37          H53   0.990       .  S
O38          H52   0.990       .  S
O38          H62   0.990       .  S
Zr39         O44   2.395       .  S
Zr39         O45   2.394       .  S
Zr39        O415   2.381   1_545  S
Zr39        O834   2.382       .  S
Zr40         O43   2.396       .  S
Zr40         O46   2.397       .  S
Zr40        O812   2.402   1_455  S
Zr40        O437   2.390       .  S
O41        Zr436   2.390   1_545  S
O41          H49   0.966       .  S
O42        Zr831   2.382   1_455  S
O43        Zr805   2.370   1_455  S
O43        Zr429   2.362       .  S
O44        Zr412   2.363   1_545  S
O44        Zr828   2.364       .  S
O44          H48   0.966       .  S
O45        Zr409   2.363   1_545  S
O45        Zr825   2.364       .  S
O45          H50   0.966       .  S
O46        Zr808   2.368   1_455  S
O46        Zr432   2.363       .  S
C63         C348   1.473       .  S
C63          C64   1.404       .  A
C63          C68   1.403       .  A
C64          C65   1.406       .  A
C64          H69   1.083       .  S
C65         C341   1.484       .  S
C65          C66   1.406       .  A
C66          C67   1.399       .  A
C66          H70   1.084       .  S
C67         C308   1.479       .  S
C67          C68   1.398       .  A
C68          H71   1.084       .  S
C72         C381   1.494   1_545  S
C72          C73   1.406       .  A
C72          C77   1.406   1_545  A
C73          C74   1.410       .  A
C73          H78   1.082       .  S
C74         C388   1.492       .  S
C74          C75   1.409       .  A
C75          C76   1.405       .  A
C75          H79   1.083       .  S
C76         C301   1.488       .  S
C76          C77   1.402   1_545  A
C77          H80   1.082       .  S
C81         C361   1.492   1_545  S
C81          C82   1.406       .  A
C81          C86   1.405       .  A
C82          C83   1.409       .  A
C82          H87   1.083       .  S
C83         C371   1.484       .  S
C83          C84   1.408       .  A
C84          C85   1.404       .  A
C84          H88   1.084       .  S
C85         C291   1.485       .  S
C85          C86   1.402       .  A
C86          H89   1.083   1_545  S
C90         C328   1.477       .  S
C90          C91   1.406       .  A
C90          C95   1.404       .  A
C91          C92   1.406       .  A
C91          H96   1.083       .  S
C92         C321   1.485       .  S
C92          C93   1.405       .  A
C93          C94   1.398       .  A
C93          H97   1.083       .  S
C94         C281   1.482       .  S
C94          C95   1.399       .  A
C95          H98   1.084       .  S
C99         C268   1.491       .  S
C99         C104   1.405       .  A
C99         C496   1.411       .  A
C100        C101   1.411       .  A
C100        C495   1.411   1_545  A
C100        H105   1.082       .  S
C101        C258   1.499       .  S
C101        C102   1.410       .  A
C102        C103   1.404       .  A
C102        H106   1.083       .  S
C103        C298   1.489       .  S
C103        C500   1.402   1_545  A
C104        C499   1.402       .  A
C104        H107   1.083       .  S
O108       Zr120   2.427       .  S
O108        C110   1.287       .  A
O109       Zr146   2.447       .  S
O109        C110   1.291       .  A
C110        C208   1.489       .  S
O111       Zr123   2.418       .  S
O111        C113   1.285       .  A
O112       Zr147   2.448       .  S
O112        C113   1.292       .  A
C113        C231   1.487       .  S
O114       Zr123   2.439       .  S
O114        C116   1.287       .  A
O115       Zr146   2.432   1_554  S
O115        C116   1.287       .  A
C116        C271   1.471       .  S
O117       Zr120   2.433       .  S
O117        C119   1.286       .  A
O118       Zr147   2.436   1_556  S
O118        C119   1.289       .  A
C119        C248   1.465       .  S
Zr120       O121   2.434       .  S
Zr120       O122   2.435       .  S
Zr120       O126   2.364       .  S
Zr120       O127   2.361   1_556  S
Zr120       O150   2.365       .  S
Zr120       O152   2.369       .  S
O121        H164   0.990       .  S
O122        H163   0.990       .  S
O122        H167   0.990       .  S
Zr123       O124   2.437       .  S
Zr123       O125   2.435       .  S
Zr123       O127   2.367       .  S
Zr123       O126   2.359   1_554  S
Zr123       O151   2.363       .  S
Zr123       O153   2.376       .  S
O124        H165   0.990       .  S
O124        H168   0.990       .  S
O125        H158   0.990       .  S
O126       Zr146   2.381       .  S
O127       Zr147   2.401       .  S
O127        H154   0.965       .  S
O128       Zr140   2.410       .  S
O128        C130   1.279       .  A
O129       Zr147   2.468   1_556  S
O129        C130   1.292       .  A
C130        C198   1.496       .  S
O131       Zr143   2.416       .  S
O131        C133   1.283       .  A
O132       Zr146   2.438   1_554  S
O132        C133   1.288       .  A
C133        C218   1.461       .  S
O134       Zr143   2.426       .  S
O134        C136   1.286       .  A
O135       Zr147   2.454       .  S
O135        C136   1.292       .  A
C136        C261   1.487       .  S
O137       Zr140   2.414       .  S
O137        C139   1.284       .  A
O138       Zr146   2.443       .  S
O138        C139   1.290       .  A
C139        C241   1.481       .  S
Zr140       O141   2.437       .  S
Zr140       O142   2.434       .  S
Zr140       O148   2.364   1_556  S
Zr140       O149   2.360       .  S
Zr140       O152   2.365       .  S
Zr140       O150   2.366       .  S
O141        H161   0.990       .  S
O141        H166   0.990       .  S
O142        H162   0.990       .  S
Zr143       O144   2.433       .  S
Zr143       O145   2.434       .  S
Zr143       O149   2.368   1_554  S
Zr143       O148   2.365       .  S
Zr143       O153   2.363       .  S
Zr143       O151   2.371       .  S
O144        H160   0.990       .  S
O145        H159   0.990       .  S
O145        H169   0.990       .  S
Zr146       O149   2.380       .  S
Zr146       O151   2.394   1_556  S
Zr146       O152   2.394       .  S
Zr147       O148   2.388       .  S
Zr147       O150   2.395   1_554  S
Zr147       O153   2.397       .  S
O148        H156   0.966       .  S
O151        H155   0.966       .  S
O152        H157   0.966       .  S
C170        C221   1.488       .  S
C170        C171   1.409       .  A
C170        C175   1.407       .  A
C171        C172   1.406       .  A
C171        H176   1.082       .  S
C172        C311   1.485       .  S
C172        C965   1.402       .  A
C173        C174   1.398       .  A
C173        C964   1.402   1_455  A
C173        H177   1.084       .  S
C174        C228   1.470       .  S
C174        C967   1.398   1_455  A
C175        C966   1.398       .  A
C175        H178   1.083       .  S
C179        C211   1.486       .  S
C179        C180   1.407       .  A
C179        C580   1.410       .  A
C180        C577   1.401       .  A
C180        H185   1.083       .  S
C181        C288   1.489       .  S
C181        C182   1.402       .  A
C181        C576   1.401   1_545  A
C182        C183   1.409       .  A
C182        H186   1.083       .  S
C183        C201   1.492       .  S
C183        C184   1.410       .  A
C184        C575   1.410   1_545  A
C184        H187   1.083       .  S
C188        C238   1.485       .  S
C188        C189   1.404       .  A
C188        C193   1.407       .  A
C189        C190   1.400       .  A
C189        H194   1.084       .  S
C190        C278   1.479       .  S
C190        C983   1.400       .  A
C191        C192   1.404       .  A
C191        C982   1.400   1_455  A
C191        H195   1.082       .  S
C192        C251   1.488       .  S
C192        C985   1.409   1_455  A
C193        C984   1.409       .  A
C193        H196   1.083       .  S
C197        C198   1.409       .  A
C197        C202   1.411       .  A
C197        H204   1.083       .  S
C198        C199   1.416       .  A
C199        C200   1.388       .  A
C199        F206   1.358       .  S
C200        C201   1.399       .  A
C200        H205   1.084       .  S
C201        C202   1.412       .  A
C202        F203   1.357       .  S
C207        C208   1.407       .  A
C207        C212   1.393       .  A
C207        H214   1.083       .  S
C208        C209   1.411       .  A
C209        C210   1.407       .  A
C209        F216   1.357       .  S
C210        C211   1.407       .  A
C210        H215   1.083       .  S
C211        C212   1.405       .  A
C212        F213   1.358       .  S
C217        C218   1.399       .  A
C217        C222   1.400       .  A
C217        H224   1.084       .  S
C218        C219   1.401       .  A
C219        C220   1.394       .  A
C219        F226   1.358       .  S
C220        C221   1.407       .  A
C220        H225   1.083       .  S
C221        C222   1.413       .  A
C222        F223   1.357       .  S
C227        C228   1.403       .  A
C227        C232   1.403       .  A
C227        H234   1.083       .  S
C228        C229   1.397       .  A
C229        C230   1.389       .  A
C229        F236   1.358       .  S
C230        C231   1.412       .  A
C230        H235   1.083       .  S
C231        C232   1.410       .  A
C232        F233   1.357       .  S
C237        C238   1.408       .  A
C237        C242   1.404       .  A
C237        H244   1.083       .  S
C238        C239   1.406       .  A
C239        C240   1.391       .  A
C239        F246   1.358       .  S
C240        C241   1.406       .  A
C240        H245   1.084       .  S
C241        C242   1.407       .  A
C242        F243   1.357       .  S
C247        C248   1.399       .  A
C247        C252   1.400       .  A
C247        H254   1.083       .  S
C248        C249   1.403       .  A
C249        C250   1.396       .  A
C249        F256   1.358       .  S
C250        C251   1.405       .  A
C250        H255   1.083       .  S
C251        C252   1.414       .  A
C252        F253   1.357       .  S
C257        C258   1.406       .  A
C257        C262   1.394       .  A
C257        H264   1.083       .  S
C258        C259   1.414       .  A
C259        C260   1.408       .  A
C259        F266   1.357       .  S
C260        C261   1.406       .  A
C260        H265   1.083       .  S
C261        C262   1.408       .  A
C262        F263   1.358       .  S
C267        C268   1.406       .  A
C267        C272   1.398       .  A
C267        H274   1.083       .  S
C268        C269   1.413       .  A
C269        C270   1.402       .  A
C269        F276   1.357       .  S
C270        C271   1.401       .  A
C270        H275   1.083       .  S
C271        C272   1.404       .  A
C272        F273   1.358       .  S
C277        C278   1.404       .  A
C277        C282   1.396       .  A
C277        H284   1.083       .  S
C278       C1071   1.405       .  A
C279        C280   1.396       .  A
C279       C1070   1.405   1_455  A
C279        F286   1.357       .  S
C280       C1073   1.406   1_455  A
C280        H285   1.083       .  S
C281        C282   1.407       .  A
C281       C1072   1.406       .  A
C282        F283   1.357       .  S
C287        C288   1.405       .  A
C287        C292   1.396       .  A
C287        H294   1.083       .  S
C288        C685   1.410       .  A
C289        C290   1.402       .  A
C289        C684   1.410       .  A
C289        F296   1.357       .  S
C290        C687   1.404       .  A
C290        H295   1.083       .  S
C291        C292   1.407       .  A
C291        C686   1.404       .  A
C292        F293   1.358       .  S
C297        C302   1.398       .  A
C297        C694   1.405       .  A
C297        H304   1.083       .  S
C298        C299   1.409       .  A
C298        C693   1.405   1_545  A
C299        C300   1.400       .  A
C299        F306   1.357       .  S
C300        C301   1.405       .  A
C300        H305   1.083       .  S
C301        C698   1.409   1_545  A
C302        C697   1.409       .  A
C302        F303   1.357       .  S
C307        C308   1.404       .  A
C307        C312   1.396       .  A
C307        H314   1.083       .  S
C308       C1101   1.405       .  A
C309        C310   1.397       .  A
C309       C1100   1.405   1_455  A
C309        F316   1.358       .  S
C310       C1103   1.407   1_455  A
C310        H315   1.083       .  S
C311        C312   1.408       .  A
C311       C1102   1.407       .  A
C312        F313   1.357       .  S
C317        C318   1.407       .  A
C317        C322   1.406       .  A
C317        H324   1.083       .  S
C318       C1111   1.410   1_455  A
C319        C320   1.385       .  A
C319       C1110   1.410       .  A
C319        F326   1.358       .  S
C320        C321   1.401       .  A
C320        H325   1.083       .  S
C321       C1114   1.411       .  A
C322       C1113   1.411       .  A
C322        F323   1.357       .  S
C327        C328   1.406       .  A
C327        C332   1.404       .  A
C327        H334   1.083       .  S
C328       C1121   1.402       .  A
C329        C330   1.388       .  A
C329       C1120   1.402   1_455  A
C329        F336   1.358       .  S
C330       C1123   1.408   1_455  A
C330        H335   1.083       .  S
C331        C332   1.410       .  A
C331       C1122   1.408       .  A
C332        F333   1.357       .  S
C337        C338   1.407       .  A
C337        C342   1.405       .  A
C337        H344   1.083       .  S
C338       C1131   1.412   1_455  A
C339        C340   1.387       .  A
C339       C1130   1.412       .  A
C339        F346   1.358       .  S
C340        C341   1.400       .  A
C340        H345   1.083       .  S
C341       C1134   1.410       .  A
C342       C1133   1.410       .  A
C342        F343   1.357       .  S
C347        C352   1.387       .  A
C347       C1140   1.396   1_455  A
C347        H354   1.084       .  S
C348        C349   1.406       .  A
C348       C1139   1.396       .  A
C349        C350   1.404       .  A
C349        F356   1.357       .  S
C350        C351   1.408       .  A
C350        H355   1.083       .  S
C351       C1144   1.416       .  A
C352       C1143   1.416   1_455  A
C352        F353   1.358       .  S
C357        C362   1.389       .  A
C357        C754   1.407   1_545  A
C357        H364   1.084       .  S
C358        C359   1.408       .  A
C358        C753   1.407       .  A
C359        C360   1.409       .  A
C359        F366   1.357       .  S
C360        C757   1.411       .  A
C360        H365   1.083       .  S
C361        C362   1.407   1_565  A
C361        C756   1.411       .  A
C362        F363   1.358       .  S
C367        C372   1.395       .  A
C367        C764   1.404       .  A
C367        H374   1.084       .  S
C368        C369   1.405       .  A
C368        C763   1.404   1_545  A
C369        C370   1.405       .  A
C369        F376   1.357       .  S
C370        C371   1.408       .  A
C370        H375   1.083       .  S
C371        C768   1.405   1_545  A
C372        C767   1.405       .  A
C372        F373   1.358       .  S
C377        C378   1.405       .  A
C377        C382   1.407       .  A
C377        H384   1.083       .  S
C378        C775   1.409       .  A
C379        C380   1.390       .  A
C379        C774   1.409   1_545  A
C379        F386   1.358       .  S
C380        C381   1.403   1_545  A
C380        H385   1.083       .  S
C381        C778   1.414       .  A
C382        C777   1.414       .  A
C382        F383   1.357       .  S
C387        C388   1.411       .  A
C387        C392   1.403       .  A
C387        H394   1.083       .  S
C388        C389   1.410       .  A
C389        C390   1.396       .  A
C389        F396   1.357   1_545  S
C390        C391   1.400       .  A
C390        H395   1.084   1_545  S
C391        C392   1.402       .  A
C392        F393   1.357       .  S
O397       Zr409   2.431       .  S
O398       Zr435   2.439       .  S
O398        C399   1.288       .  A
C399        C787   1.469       .  S
O400       Zr412   2.413       .  S
O400       C1194   1.283       .  A
O401       Zr436   2.443       .  S
O401        C402   1.290       .  A
C402       O1192   1.283   1_455  A
C402        C714   1.481       .  S
O403       Zr412   2.424       .  S
O404       Zr435   2.448       .  S
O404        C405   1.290       .  A
C405        C764   1.476       .  S
O406       Zr409   2.412       .  S
O406       C1200   1.283       .  A
O407       Zr436   2.448       .  S
O407        C408   1.291       .  A
C408       O1198   1.283   1_455  A
C408        C734   1.483       .  S
Zr409       O410   2.434       .  S
Zr409       O411   2.435       .  S
Zr409       O415   2.357       .  S
Zr409       O416   2.367       .  S
Zr409      O1231   2.370       .  S
O410        H453   0.990       .  S
O411        H452   0.990   1_565  S
O411        H456   0.990       .  S
Zr412       O413   2.437       .  S
Zr412       O414   2.435       .  S
Zr412       O416   2.365       .  S
Zr412       O415   2.358       .  S
Zr412      O1234   2.368       .  S
O413        H454   0.990       .  S
O413        H457   0.990       .  S
O414        H447   0.990       .  S
O416      Zr1228   2.402       .  S
O416        H443   0.966       .  S
O417       Zr429   2.409       .  S
O418       Zr436   2.458       .  S
O418        C419   1.292       .  A
C419        C774   1.483       .  S
O420       Zr432   2.414       .  S
O420       C1214   1.285   1_455  A
O421       Zr435   2.438       .  S
O421        C422   1.289       .  A
C422       O1212   1.285       .  A
C422        C727   1.484       .  S
O423       Zr432   2.409       .  S
O424       Zr436   2.461       .  S
O424        C425   1.293       .  A
C425        C754   1.488       .  S
O426       Zr429   2.404       .  S
O426       C1220   1.281   1_455  A
O427       Zr435   2.446       .  S
O427        C428   1.291       .  A
C428       O1218   1.281       .  A
C428        C747   1.485       .  S
Zr429       O430   2.437       .  S
Zr429       O431   2.434       .  S
Zr429       O437   2.361       .  S
Zr429       O438   2.361       .  S
Zr429      O1233   2.364   1_455  S
O430        H450   0.990       .  S
O430        H455   0.990       .  S
O431        H451   0.990       .  S
Zr432       O433   2.433       .  S
Zr432       O434   2.434       .  S
Zr432       O438   2.360       .  S
Zr432       O437   2.366       .  S
Zr432      O1232   2.364   1_455  S
O433        H449   0.990       .  S
O434        H448   0.990       .  S
O434        H458   0.990       .  S
Zr435      O1230   2.382       .  S
Zr435       O440   2.395       .  S
Zr435       O441   2.394       .  S
Zr436      O1208   2.402   1_455  S
Zr436       O439   2.396       .  S
Zr436       O442   2.397       .  S
O437        H445   0.966       .  S
O438      Zr1227   2.382   1_455  S
O439      Zr1201   2.370   1_455  S
O440      Zr1224   2.364       .  S
O440        H444   0.966       .  S
O441      Zr1221   2.364       .  S
O441        H446   0.966       .  S
O442      Zr1204   2.368   1_455  S
C459        C744   1.473       .  S
C459        C460   1.404       .  A
C459        C464   1.403       .  A
C460        C461   1.406       .  A
C460        H465   1.083       .  S
C461        C737   1.484       .  S
C461        C462   1.406       .  A
C462        C463   1.399       .  A
C462        H466   1.084       .  S
C463        C704   1.479       .  S
C463        C464   1.398       .  A
C464        H467   1.084       .  S
C468        C777   1.494       .  S
C468        C469   1.406       .  A
C468        C473   1.406       .  A
C469        C470   1.410       .  A
C469        H474   1.082       .  S
C470        C784   1.492       .  S
C470        C471   1.409       .  A
C471        C472   1.405       .  A
C471        H475   1.083       .  S
C472        C697   1.488       .  S
C472        C473   1.402       .  A
C473        H476   1.082       .  S
C477        C757   1.492       .  S
C477        C478   1.406       .  A
C477        C482   1.405       .  A
C478        C479   1.409       .  A
C478        H483   1.083       .  S
C479        C767   1.484       .  S
C479        C480   1.408       .  A
C480        C481   1.404       .  A
C480        H484   1.084       .  S
C481        C687   1.485       .  S
C481        C482   1.402       .  A
C482        H485   1.083       .  S
C486        C724   1.477       .  S
C486        C487   1.406       .  A
C486        C491   1.404       .  A
C487        C488   1.406       .  A
C487        H492   1.083       .  S
C488        C717   1.485       .  S
C488        C489   1.405       .  A
C489        C490   1.398       .  A
C489        H493   1.083       .  S
C490        C677   1.482       .  S
C490        C491   1.399       .  A
C491        H494   1.084       .  S
C495        C664   1.491       .  S
C495        C500   1.405       .  A
C496        C497   1.411       .  A
C496        H501   1.082       .  S
C497        C654   1.499       .  S
C497        C498   1.410       .  A
C498        C499   1.404       .  A
C498        H502   1.083       .  S
C499        C694   1.489       .  S
C500        H503   1.083       .  S
O504       Zr516   2.427       .  S
O504        C506   1.287       .  A
O505       Zr542   2.447       .  S
O505        C506   1.291       .  A
C506        C604   1.489       .  S
O507       Zr519   2.418       .  S
O507        C509   1.285       .  A
O508       Zr543   2.448       .  S
O508        C509   1.292       .  A
C509        C627   1.487       .  S
O510       Zr519   2.439       .  S
O510        C512   1.287       .  A
O511       Zr542   2.432   1_554  S
O511        C512   1.287       .  A
C512        C667   1.471       .  S
O513       Zr516   2.433       .  S
O513        C515   1.286       .  A
O514       Zr543   2.436   1_556  S
O514        C515   1.289       .  A
C515        C644   1.465       .  S
Zr516       O517   2.434       .  S
Zr516       O518   2.435       .  S
Zr516       O522   2.364       .  S
Zr516       O523   2.361   1_556  S
Zr516       O546   2.365       .  S
Zr516       O548   2.369       .  S
O517        H560   0.990       .  S
O518        H559   0.990       .  S
O518        H563   0.990       .  S
Zr519       O520   2.437       .  S
Zr519       O521   2.435       .  S
Zr519       O523   2.367       .  S
Zr519       O522   2.359   1_554  S
Zr519       O547   2.363       .  S
Zr519       O549   2.376       .  S
O520        H561   0.990       .  S
O520        H564   0.990       .  S
O521        H554   0.990       .  S
O522       Zr542   2.381       .  S
O523       Zr543   2.401       .  S
O523        H550   0.965       .  S
O524       Zr536   2.410       .  S
O524        C526   1.279       .  A
O525       Zr543   2.468   1_556  S
O525        C526   1.292       .  A
C526        C594   1.496       .  S
O527       Zr539   2.416       .  S
O527        C529   1.283       .  A
O528       Zr542   2.438   1_554  S
O528        C529   1.288       .  A
C529        C614   1.461       .  S
O530       Zr539   2.426       .  S
O530        C532   1.286       .  A
O531       Zr543   2.454       .  S
O531        C532   1.292       .  A
C532        C657   1.487       .  S
O533       Zr536   2.414       .  S
O533        C535   1.284       .  A
O534       Zr542   2.443       .  S
O534        C535   1.290       .  A
C535        C637   1.481       .  S
Zr536       O537   2.437       .  S
Zr536       O538   2.434       .  S
Zr536       O544   2.364   1_556  S
Zr536       O545   2.360       .  S
Zr536       O548   2.365       .  S
Zr536       O546   2.366       .  S
O537        H557   0.990       .  S
O537        H562   0.990       .  S
O538        H558   0.990       .  S
Zr539       O540   2.433       .  S
Zr539       O541   2.434       .  S
Zr539       O545   2.368   1_554  S
Zr539       O544   2.365       .  S
Zr539       O549   2.363       .  S
Zr539       O547   2.371       .  S
O540        H556   0.990       .  S
O541        H555   0.990       .  S
O541        H565   0.990       .  S
Zr542       O545   2.380       .  S
Zr542       O547   2.394   1_556  S
Zr542       O548   2.394       .  S
Zr543       O544   2.388       .  S
Zr543       O546   2.395   1_554  S
Zr543       O549   2.397       .  S
O544        H552   0.966       .  S
O547        H551   0.966       .  S
O548        H553   0.966       .  S
C566        C617   1.488       .  S
C566        C567   1.409       .  A
C566        C571   1.407       .  A
C567        C568   1.406       .  A
C567        H572   1.082       .  S
C568        C707   1.485       .  S
C568       C1361   1.402       .  A
C569       C1360   1.402   1_455  A
C569        C570   1.398       .  A
C569        H573   1.084       .  S
C570        C624   1.470       .  S
C570       C1363   1.398   1_455  A
C571       C1362   1.398       .  A
C571        H574   1.083       .  S
C575        C607   1.486       .  S
C575        C576   1.407       .  A
C576        H581   1.083       .  S
C577        C684   1.489       .  S
C577        C578   1.402       .  A
C578        C579   1.409       .  A
C578        H582   1.083       .  S
C579        C597   1.492       .  S
C579        C580   1.410       .  A
C580        H583   1.083       .  S
C584        C634   1.485       .  S
C584        C585   1.404       .  A
C584        C589   1.407       .  A
C585        C586   1.400       .  A
C585        H590   1.084       .  S
C586        C674   1.479       .  S
C586       C1379   1.400       .  A
C587       C1378   1.400   1_455  A
C587        C588   1.404       .  A
C587        H591   1.082       .  S
C588        C647   1.488       .  S
C588       C1381   1.409   1_455  A
C589       C1380   1.409       .  A
C589        H592   1.083       .  S
C593        C594   1.409       .  A
C593        C598   1.411       .  A
C593        H600   1.083       .  S
C594        C595   1.416       .  A
C595        C596   1.388       .  A
C595        F602   1.358       .  S
C596        C597   1.399       .  A
C596        H601   1.084       .  S
C597        C598   1.412       .  A
C598        F599   1.357       .  S
C603        C604   1.407       .  A
C603        C608   1.393       .  A
C603        H610   1.083       .  S
C604        C605   1.411       .  A
C605        C606   1.407       .  A
C605        F612   1.357       .  S
C606        C607   1.407       .  A
C606        H611   1.083       .  S
C607        C608   1.405       .  A
C608        F609   1.358       .  S
C613        C614   1.399       .  A
C613        C618   1.400       .  A
C613        H620   1.084       .  S
C614        C615   1.401       .  A
C615        C616   1.394       .  A
C615        F622   1.358       .  S
C616        C617   1.407       .  A
C616        H621   1.083       .  S
C617        C618   1.413       .  A
C618        F619   1.357       .  S
C623        C624   1.403       .  A
C623        C628   1.403       .  A
C623        H630   1.083       .  S
C624        C625   1.397       .  A
C625        C626   1.389       .  A
C625        F632   1.358       .  S
C626        C627   1.412       .  A
C626        H631   1.083       .  S
C627        C628   1.410       .  A
C628        F629   1.357       .  S
C633        C634   1.408       .  A
C633        C638   1.404       .  A
C633        H640   1.083       .  S
C634        C635   1.406       .  A
C635        C636   1.391       .  A
C635        F642   1.358       .  S
C636        C637   1.406       .  A
C636        H641   1.084       .  S
C637        C638   1.407       .  A
C638        F639   1.357       .  S
C643        C644   1.399       .  A
C643        C648   1.400       .  A
C643        H650   1.083       .  S
C644        C645   1.403       .  A
C645        C646   1.396       .  A
C645        F652   1.358       .  S
C646        C647   1.405       .  A
C646        H651   1.083       .  S
C647        C648   1.414       .  A
C648        F649   1.357       .  S
C653        C654   1.406       .  A
C653        C658   1.394       .  A
C653        H660   1.083       .  S
C654        C655   1.414       .  A
C655        C656   1.408       .  A
C655        F662   1.357       .  S
C656        C657   1.406       .  A
C656        H661   1.083       .  S
C657        C658   1.408       .  A
C658        F659   1.358       .  S
C663        C664   1.406       .  A
C663        C668   1.398       .  A
C663        H670   1.083       .  S
C664        C665   1.413       .  A
C665        C666   1.402       .  A
C665        F672   1.357       .  S
C666        C667   1.401       .  A
C666        H671   1.083       .  S
C667        C668   1.404       .  A
C668        F669   1.358       .  S
C673        C674   1.404       .  A
C673        C678   1.396       .  A
C673        H680   1.083       .  S
C674       C1467   1.405       .  A
C675       C1466   1.405   1_455  A
C675        C676   1.396       .  A
C675        F682   1.357       .  S
C676       C1469   1.406   1_455  A
C676        H681   1.083       .  S
C677       C1468   1.406       .  A
C677        C678   1.407       .  A
C678        F679   1.357       .  S
C683        C684   1.405       .  A
C683        C688   1.396       .  A
C683        H690   1.083       .  S
C685        C686   1.402       .  A
C685        F692   1.357   1_545  S
C686        H691   1.083   1_545  S
C687        C688   1.407       .  A
C688        F689   1.358       .  S
C693        C698   1.398       .  A
C693        H700   1.083       .  S
C694        C695   1.409       .  A
C695        C696   1.400       .  A
C695        F702   1.357       .  S
C696        C697   1.405       .  A
C696        H701   1.083       .  S
C698        F699   1.357       .  S
C703        C704   1.404       .  A
C703        C708   1.396       .  A
C703        H710   1.083       .  S
C704       C1497   1.405       .  A
C705       C1496   1.405   1_455  A
C705        C706   1.397       .  A
C705        F712   1.358       .  S
C706       C1499   1.407   1_455  A
C706        H711   1.083       .  S
C707       C1498   1.407       .  A
C707        C708   1.408       .  A
C708        F709   1.357       .  S
C713        C714   1.407       .  A
C713        C718   1.406       .  A
C713        H720   1.083       .  S
C714       C1507   1.410   1_455  A
C715       C1506   1.410       .  A
C715        C716   1.385       .  A
C715        F722   1.358       .  S
C716        C717   1.401       .  A
C716        H721   1.083       .  S
C717       C1510   1.411       .  A
C718       C1509   1.411       .  A
C718        F719   1.357       .  S
C723        C724   1.406       .  A
C723        C728   1.404       .  A
C723        H730   1.083       .  S
C724       C1517   1.402       .  A
C725       C1516   1.402   1_455  A
C725        C726   1.388       .  A
C725        F732   1.358       .  S
C726       C1519   1.408   1_455  A
C726        H731   1.083       .  S
C727       C1518   1.408       .  A
C727        C728   1.410       .  A
C728        F729   1.357       .  S
C733        C734   1.407       .  A
C733        C738   1.405       .  A
C733        H740   1.083       .  S
C734       C1527   1.412   1_455  A
C735       C1526   1.412       .  A
C735        C736   1.387       .  A
C735        F742   1.358       .  S
C736        C737   1.400       .  A
C736        H741   1.083       .  S
C737       C1530   1.410       .  A
C738       C1529   1.410       .  A
C738        F739   1.357       .  S
C743       C1536   1.396   1_455  A
C743        C748   1.387       .  A
C743        H750   1.084       .  S
C744       C1535   1.396       .  A
C744        C745   1.406       .  A
C745        C746   1.404       .  A
C745        F752   1.357       .  S
C746        C747   1.408       .  A
C746        H751   1.083       .  S
C747       C1540   1.416       .  A
C748       C1539   1.416   1_455  A
C748        F749   1.358       .  S
C753        C758   1.389       .  A
C753        H760   1.084       .  S
C754        C755   1.408       .  A
C755        C756   1.409       .  A
C755        F762   1.357       .  S
C756        H761   1.083       .  S
C757        C758   1.407       .  A
C758        F759   1.358       .  S
C763        C768   1.395       .  A
C763        H770   1.084       .  S
C764        C765   1.405       .  A
C765        C766   1.405       .  A
C765        F772   1.357       .  S
C766        C767   1.408       .  A
C766        H771   1.083       .  S
C768        F769   1.358       .  S
C773        C774   1.405       .  A
C773        C778   1.407       .  A
C773        H780   1.083       .  S
C775        C776   1.390       .  A
C775        F782   1.358       .  S
C776        C777   1.403       .  A
C776        H781   1.083       .  S
C778        F779   1.357       .  S
C783        C784   1.411       .  A
C783        C788   1.403       .  A
C783        H790   1.083       .  S
C784        C785   1.410       .  A
C785        C786   1.396       .  A
C785        F792   1.357       .  S
C786        C787   1.400       .  A
C786        H791   1.084       .  S
C787        C788   1.402       .  A
C788        F789   1.357       .  S
O793       Zr805   2.431       .  S
O793       C1191   1.286       .  A
O794       Zr831   2.439       .  S
O794        C795   1.288       .  A
C795       O1189   1.286   1_545  A
C795       C1183   1.469       .  S
O796       Zr808   2.413       .  S
O797       Zr832   2.443       .  S
O797        C798   1.290       .  A
C798       C1110   1.481       .  S
O799       Zr808   2.424       .  S
O799       C1197   1.285       .  A
O800       Zr831   2.448       .  S
O800        C801   1.290       .  A
C801       O1195   1.285   1_545  A
C801       C1160   1.476       .  S
O802       Zr805   2.412       .  S
O803       Zr832   2.448       .  S
O803        C804   1.291       .  A
C804       C1130   1.483       .  S
Zr805       O806   2.434       .  S
Zr805       O807   2.435       .  S
Zr805       O811   2.357       .  S
Zr805       O812   2.367       .  S
Zr805      O1233   2.363       .  S
O806        H849   0.990       .  S
O807        H848   0.990       .  S
O807        H852   0.990       .  S
Zr808       O809   2.437       .  S
Zr808       O810   2.435       .  S
Zr808       O812   2.365       .  S
Zr808       O811   2.358       .  S
Zr808      O1232   2.363       .  S
O809        H850   0.990       .  S
O809        H853   0.990       .  S
O810        H843   0.990       .  S
O811      Zr1227   2.381       .  S
O812        H839   0.966       .  S
O813       Zr825   2.409       .  S
O813       C1211   1.282   1_545  A
O814       Zr832   2.458       .  S
O814        C815   1.292       .  A
C815       O1209   1.282       .  A
C815       C1170   1.483       .  S
O816       Zr828   2.414       .  S
O817       Zr831   2.438       .  S
O817        C818   1.289       .  A
C818       C1123   1.484       .  S
O819       Zr828   2.409       .  S
O819       C1217   1.283   1_545  A
O820       Zr832   2.461       .  S
O820        C821   1.293       .  A
C821       O1215   1.283       .  A
C821       C1150   1.488       .  S
O822       Zr825   2.404       .  S
O823       Zr831   2.446       .  S
O823        C824   1.291       .  A
C824       C1143   1.485       .  S
Zr825       O826   2.437       .  S
Zr825       O827   2.434       .  S
Zr825       O833   2.361       .  S
Zr825       O834   2.361       .  S
Zr825      O1231   2.362   1_545  S
O826        H846   0.990       .  S
O826        H851   0.990       .  S
O827        H847   0.990       .  S
Zr828       O829   2.433       .  S
Zr828       O830   2.434       .  S
Zr828       O834   2.360       .  S
Zr828       O833   2.366       .  S
Zr828      O1234   2.363   1_545  S
O829        H845   0.990       .  S
O830        H844   0.990       .  S
O830        H854   0.990       .  S
Zr831      O1207   2.381   1_545  S
Zr831       O836   2.395       .  S
Zr831       O837   2.394       .  S
Zr832      O1229   2.390       .  S
Zr832       O835   2.396       .  S
Zr832       O838   2.397       .  S
O833      Zr1228   2.390   1_545  S
O833        H841   0.966       .  S
O835      Zr1221   2.362       .  S
O836      Zr1204   2.363   1_545  S
O836        H840   0.966       .  S
O837      Zr1201   2.363   1_545  S
O837        H842   0.966       .  S
O838      Zr1224   2.363       .  S
C855       C1140   1.473       .  S
C855        C856   1.404       .  A
C855        C860   1.403       .  A
C856        C857   1.406   1_655  A
C856        H861   1.083       .  S
C857       C1133   1.484       .  S
C857        C858   1.406   1_455  A
C858        C859   1.399       .  A
C858        H862   1.084   1_655  S
C859       C1100   1.479       .  S
C859        C860   1.398       .  A
C860        H863   1.084       .  S
C864       C1173   1.494   1_545  S
C864        C865   1.406       .  A
C864        C869   1.406   1_545  A
C865        C866   1.410       .  A
C865        H870   1.082       .  S
C866       C1180   1.492       .  S
C866        C867   1.409       .  A
C867        C868   1.405       .  A
C867        H871   1.083       .  S
C868       C1093   1.488       .  S
C868        C869   1.402   1_545  A
C869        H872   1.082       .  S
C873       C1153   1.492   1_545  S
C873        C874   1.406       .  A
C873        C878   1.405       .  A
C874        C875   1.409       .  A
C874        H879   1.083       .  S
C875       C1163   1.484       .  S
C875        C876   1.408       .  A
C876        C877   1.404       .  A
C876        H880   1.084       .  S
C877       C1083   1.485       .  S
C877        C878   1.402       .  A
C878        H881   1.083   1_545  S
C882       C1120   1.477       .  S
C882        C883   1.406       .  A
C882        C887   1.404       .  A
C883        C884   1.406   1_655  A
C883        H888   1.083       .  S
C884       C1113   1.485       .  S
C884        C885   1.405       .  A
C885        C886   1.398   1_455  A
C885        H889   1.083       .  S
C886       C1073   1.482       .  S
C886        C887   1.399       .  A
C887        H890   1.084       .  S
C891       C1060   1.491       .  S
C891       C1288   1.411       .  A
C891        C896   1.405       .  A
C892       C1287   1.411   1_545  A
C892        C893   1.411       .  A
C892        H897   1.082       .  S
C893       C1050   1.499       .  S
C893        C894   1.410       .  A
C894        C895   1.404       .  A
C894        H898   1.083       .  S
C895       C1090   1.489       .  S
C895       C1292   1.402   1_545  A
C896       C1291   1.402       .  A
C896        H899   1.083       .  S
O900       Zr912   2.427       .  S
O900        C902   1.287       .  A
O901       Zr938   2.447       .  S
O901        C902   1.291       .  A
C902       C1000   1.489       .  S
O903       Zr915   2.418       .  S
O903        C905   1.285       .  A
O904       Zr939   2.448       .  S
O904        C905   1.292       .  A
C905       C1023   1.487       .  S
O906       Zr915   2.439       .  S
O906        C908   1.287       .  A
O907       Zr938   2.432   1_554  S
O907        C908   1.287       .  A
C908       C1063   1.471       .  S
O909       Zr912   2.433       .  S
O909        C911   1.286       .  A
O910       Zr939   2.436   1_556  S
O910        C911   1.289       .  A
C911       C1040   1.465       .  S
Zr912       O913   2.434       .  S
Zr912       O914   2.435       .  S
Zr912       O918   2.364       .  S
Zr912       O919   2.361   1_556  S
Zr912       O942   2.365       .  S
Zr912       O944   2.369       .  S
O913        H956   0.990       .  S
O914        H955   0.990       .  S
O914        H959   0.990       .  S
Zr915       O916   2.437       .  S
Zr915       O917   2.435       .  S
Zr915       O919   2.367       .  S
Zr915       O918   2.359   1_554  S
Zr915       O943   2.363       .  S
Zr915       O945   2.376       .  S
O916        H957   0.990       .  S
O916        H960   0.990       .  S
O917        H950   0.990       .  S
O918       Zr938   2.381       .  S
O919       Zr939   2.401       .  S
O919        H946   0.965       .  S
O920       Zr932   2.410       .  S
O920        C922   1.279       .  A
O921       Zr939   2.468   1_556  S
O921        C922   1.292       .  A
C922        C990   1.496       .  S
O923       Zr935   2.416       .  S
O923        C925   1.283       .  A
O924       Zr938   2.438   1_554  S
O924        C925   1.288       .  A
C925       C1010   1.461       .  S
O926       Zr935   2.426       .  S
O926        C928   1.286       .  A
O927       Zr939   2.454       .  S
O927        C928   1.292       .  A
C928       C1053   1.487       .  S
O929       Zr932   2.414       .  S
O929        C931   1.284       .  A
O930       Zr938   2.443       .  S
O930        C931   1.290       .  A
C931       C1033   1.481       .  S
Zr932       O933   2.437       .  S
Zr932       O934   2.434       .  S
Zr932       O940   2.364   1_556  S
Zr932       O941   2.360       .  S
Zr932       O944   2.365       .  S
Zr932       O942   2.366       .  S
O933        H953   0.990       .  S
O933        H958   0.990       .  S
O934        H954   0.990       .  S
Zr935       O936   2.433       .  S
Zr935       O937   2.434       .  S
Zr935       O941   2.368   1_554  S
Zr935       O940   2.365       .  S
Zr935       O945   2.363       .  S
Zr935       O943   2.371       .  S
O936        H952   0.990       .  S
O937        H951   0.990       .  S
O937        H961   0.990       .  S
Zr938       O941   2.380       .  S
Zr938       O943   2.394   1_556  S
Zr938       O944   2.394       .  S
Zr939       O940   2.388       .  S
Zr939       O942   2.395   1_554  S
Zr939       O945   2.397       .  S
O940        H948   0.966       .  S
O943        H947   0.966       .  S
O944        H949   0.966       .  S
C962       C1013   1.488       .  S
C962        C963   1.409       .  A
C962        C967   1.407       .  A
C963        C964   1.406       .  A
C963        H968   1.082       .  S
C964       C1103   1.485       .  S
C965        C966   1.398       .  A
C965        H969   1.084       .  S
C966       C1020   1.470       .  S
C967        H970   1.083       .  S
C971       C1003   1.486       .  S
C971        C972   1.407       .  A
C971       C1372   1.410       .  A
C972       C1369   1.401       .  A
C972        H977   1.083       .  S
C973       C1080   1.489       .  S
C973       C1368   1.401   1_545  A
C973        C974   1.402       .  A
C974        C975   1.409       .  A
C974        H978   1.083       .  S
C975        C993   1.492       .  S
C975        C976   1.410       .  A
C976       C1367   1.410   1_545  A
C976        H979   1.083       .  S
C980       C1030   1.485       .  S
C980        C981   1.404       .  A
C980        C985   1.407       .  A
C981        C982   1.400       .  A
C981        H986   1.084       .  S
C982       C1070   1.479       .  S
C983        C984   1.404       .  A
C983        H987   1.082       .  S
C984       C1043   1.488       .  S
C985        H988   1.083       .  S
C989        C990   1.409       .  A
C989        C994   1.411       .  A
C989        H996   1.083       .  S
C990        C991   1.416       .  A
C991        C992   1.388       .  A
C991        F998   1.358       .  S
C992        C993   1.399       .  A
C992        H997   1.084       .  S
C993        C994   1.412       .  A
C994        F995   1.357       .  S
C999       C1000   1.407       .  A
C999       C1004   1.393       .  A
C999       H1006   1.083       .  S
C1000      C1001   1.411       .  A
C1001      C1002   1.407       .  A
C1001      F1008   1.357       .  S
C1002      C1003   1.407       .  A
C1002      H1007   1.083       .  S
C1003      C1004   1.405       .  A
C1004      F1005   1.358       .  S
C1009      C1010   1.399       .  A
C1009      C1014   1.400       .  A
C1009      H1016   1.084       .  S
C1010      C1011   1.401       .  A
C1011      C1012   1.394       .  A
C1011      F1018   1.358       .  S
C1012      C1013   1.407       .  A
C1012      H1017   1.083       .  S
C1013      C1014   1.413       .  A
C1014      F1015   1.357       .  S
C1019      C1020   1.403       .  A
C1019      C1024   1.403       .  A
C1019      H1026   1.083       .  S
C1020      C1021   1.397       .  A
C1021      C1022   1.389       .  A
C1021      F1028   1.358       .  S
C1022      C1023   1.412       .  A
C1022      H1027   1.083       .  S
C1023      C1024   1.410       .  A
C1024      F1025   1.357       .  S
C1029      C1030   1.408       .  A
C1029      C1034   1.404       .  A
C1029      H1036   1.083       .  S
C1030      C1031   1.406       .  A
C1031      C1032   1.391       .  A
C1031      F1038   1.358       .  S
C1032      C1033   1.406       .  A
C1032      H1037   1.084       .  S
C1033      C1034   1.407       .  A
C1034      F1035   1.357       .  S
C1039      C1040   1.399       .  A
C1039      C1044   1.400       .  A
C1039      H1046   1.083       .  S
C1040      C1041   1.403       .  A
C1041      C1042   1.396       .  A
C1041      F1048   1.358       .  S
C1042      C1043   1.405       .  A
C1042      H1047   1.083       .  S
C1043      C1044   1.414       .  A
C1044      F1045   1.357       .  S
C1049      C1050   1.406       .  A
C1049      C1054   1.394       .  A
C1049      H1056   1.083       .  S
C1050      C1051   1.414       .  A
C1051      C1052   1.408       .  A
C1051      F1058   1.357       .  S
C1052      C1053   1.406       .  A
C1052      H1057   1.083       .  S
C1053      C1054   1.408       .  A
C1054      F1055   1.358       .  S
C1059      C1060   1.406       .  A
C1059      C1064   1.398       .  A
C1059      H1066   1.083       .  S
C1060      C1061   1.413       .  A
C1061      C1062   1.402       .  A
C1061      F1068   1.357       .  S
C1062      C1063   1.401       .  A
C1062      H1067   1.083       .  S
C1063      C1064   1.404       .  A
C1064      F1065   1.358       .  S
C1069      C1070   1.404       .  A
C1069      C1074   1.396       .  A
C1069      H1076   1.083       .  S
C1071      C1072   1.396       .  A
C1071      F1078   1.357       .  S
C1072      H1077   1.083       .  S
C1073      C1074   1.407       .  A
C1074      F1075   1.357       .  S
C1079      C1080   1.405       .  A
C1079      C1084   1.396       .  A
C1079      H1086   1.083       .  S
C1080      C1477   1.410       .  A
C1081      C1476   1.410       .  A
C1081      C1082   1.402       .  A
C1081      F1088   1.357       .  S
C1082      C1479   1.404       .  A
C1082      H1087   1.083       .  S
C1083      C1478   1.404       .  A
C1083      C1084   1.407       .  A
C1084      F1085   1.358       .  S
C1089      C1486   1.405       .  A
C1089      C1094   1.398       .  A
C1089      H1096   1.083       .  S
C1090      C1485   1.405   1_545  A
C1090      C1091   1.409       .  A
C1091      C1092   1.400       .  A
C1091      F1098   1.357       .  S
C1092      C1093   1.405       .  A
C1092      H1097   1.083       .  S
C1093      C1490   1.409   1_545  A
C1094      C1489   1.409       .  A
C1094      F1095   1.357       .  S
C1099      C1100   1.404       .  A
C1099      C1104   1.396       .  A
C1099      H1106   1.083       .  S
C1101      C1102   1.397       .  A
C1101      F1108   1.358       .  S
C1102      H1107   1.083       .  S
C1103      C1104   1.408       .  A
C1104      F1105   1.357       .  S
C1109      C1110   1.407       .  A
C1109      C1114   1.406       .  A
C1109      H1116   1.083       .  S
C1111      C1112   1.385       .  A
C1111      F1118   1.358       .  S
C1112      C1113   1.401   1_655  A
C1112      H1117   1.083       .  S
C1114      F1115   1.357       .  S
C1119      C1120   1.406       .  A
C1119      C1124   1.404       .  A
C1119      H1126   1.083       .  S
C1121      C1122   1.388       .  A
C1121      F1128   1.358       .  S
C1122      H1127   1.083       .  S
C1123      C1124   1.410       .  A
C1124      F1125   1.357       .  S
C1129      C1130   1.407       .  A
C1129      C1134   1.405       .  A
C1129      H1136   1.083       .  S
C1131      C1132   1.387       .  A
C1131      F1138   1.358       .  S
C1132      C1133   1.400   1_655  A
C1132      H1137   1.083       .  S
C1134      F1135   1.357       .  S
C1139      C1144   1.387       .  A
C1139      H1146   1.084       .  S
C1140      C1141   1.406       .  A
C1141      C1142   1.404       .  A
C1141      F1148   1.357       .  S
C1142      C1143   1.408       .  A
C1142      H1147   1.083       .  S
C1144      F1145   1.358       .  S
C1149      C1546   1.407   1_545  A
C1149      C1154   1.389       .  A
C1149      H1156   1.084       .  S
C1150      C1545   1.407       .  A
C1150      C1151   1.408       .  A
C1151      C1152   1.409       .  A
C1151      F1158   1.357       .  S
C1152      C1549   1.411       .  A
C1152      H1157   1.083       .  S
C1153      C1548   1.411       .  A
C1153      C1154   1.407   1_565  A
C1154      F1155   1.358       .  S
C1159      C1556   1.404       .  A
C1159      C1164   1.395       .  A
C1159      H1166   1.084       .  S
C1160      C1555   1.404   1_545  A
C1160      C1161   1.405       .  A
C1161      C1162   1.405       .  A
C1161      F1168   1.357       .  S
C1162      C1163   1.408       .  A
C1162      H1167   1.083       .  S
C1163      C1560   1.405   1_545  A
C1164      C1559   1.405       .  A
C1164      F1165   1.358       .  S
C1169      C1170   1.405       .  A
C1169      C1174   1.407       .  A
C1169      H1176   1.083       .  S
C1170      C1567   1.409       .  A
C1171      C1566   1.409   1_545  A
C1171      C1172   1.390       .  A
C1171      F1178   1.358       .  S
C1172      C1173   1.403   1_545  A
C1172      H1177   1.083       .  S
C1173      C1570   1.414       .  A
C1174      C1569   1.414       .  A
C1174      F1175   1.357       .  S
C1179      C1180   1.411       .  A
C1179      C1184   1.403       .  A
C1179      H1186   1.083       .  S
C1180      C1181   1.410       .  A
C1181      C1182   1.396       .  A
C1181      F1188   1.357   1_545  S
C1182      C1183   1.400       .  A
C1182      H1187   1.084   1_545  S
C1183      C1184   1.402       .  A
C1184      F1185   1.357       .  S
O1189     Zr1201   2.431       .  S
O1190     Zr1227   2.439       .  S
O1190      C1191   1.288       .  A
C1191      C1579   1.469       .  S
O1192     Zr1204   2.413       .  S
O1193     Zr1228   2.443       .  S
O1193      C1194   1.290       .  A
C1194      C1506   1.481       .  S
O1195     Zr1204   2.424       .  S
O1196     Zr1227   2.448       .  S
O1196      C1197   1.290       .  A
C1197      C1556   1.476       .  S
O1198     Zr1201   2.412       .  S
O1199     Zr1228   2.448       .  S
O1199      C1200   1.291       .  A
C1200      C1526   1.483       .  S
Zr1201     O1202   2.434       .  S
Zr1201     O1203   2.435       .  S
Zr1201     O1207   2.357       .  S
Zr1201     O1208   2.367       .  S
O1202      H1245   0.990       .  S
O1203      H1244   0.990   1_565  S
O1203      H1248   0.990       .  S
Zr1204     O1205   2.437       .  S
Zr1204     O1206   2.435       .  S
Zr1204     O1208   2.365       .  S
Zr1204     O1207   2.358       .  S
O1205      H1246   0.990       .  S
O1205      H1249   0.990       .  S
O1206      H1239   0.990       .  S
O1208      H1235   0.966       .  S
O1209     Zr1221   2.409       .  S
O1210     Zr1228   2.458       .  S
O1210      C1211   1.292       .  A
C1211      C1566   1.483       .  S
O1212     Zr1224   2.414       .  S
O1213     Zr1227   2.438       .  S
O1213      C1214   1.289       .  A
C1214      C1519   1.484       .  S
O1215     Zr1224   2.409       .  S
O1216     Zr1228   2.461       .  S
O1216      C1217   1.293       .  A
C1217      C1546   1.488       .  S
O1218     Zr1221   2.404       .  S
O1219     Zr1227   2.446       .  S
O1219      C1220   1.291       .  A
C1220      C1539   1.485       .  S
Zr1221     O1222   2.437       .  S
Zr1221     O1223   2.434       .  S
Zr1221     O1229   2.361       .  S
Zr1221     O1230   2.361       .  S
O1222      H1242   0.990       .  S
O1222      H1247   0.990       .  S
O1223      H1243   0.990       .  S
Zr1224     O1225   2.433       .  S
Zr1224     O1226   2.434       .  S
Zr1224     O1230   2.360       .  S
Zr1224     O1229   2.366       .  S
O1225      H1241   0.990       .  S
O1226      H1240   0.990       .  S
O1226      H1250   0.990       .  S
Zr1227     O1232   2.395       .  S
Zr1227     O1233   2.394       .  S
Zr1228     O1231   2.396       .  S
Zr1228     O1234   2.397       .  S
O1229      H1237   0.966       .  S
O1232      H1236   0.966       .  S
O1233      H1238   0.966       .  S
C1251      C1536   1.473       .  S
C1251      C1252   1.404       .  A
C1251      C1256   1.403       .  A
C1252      C1253   1.406   1_655  A
C1252      H1257   1.083       .  S
C1253      C1529   1.484       .  S
C1253      C1254   1.406   1_455  A
C1254      C1255   1.399       .  A
C1254      H1258   1.084   1_655  S
C1255      C1496   1.479       .  S
C1255      C1256   1.398       .  A
C1256      H1259   1.084       .  S
C1260      C1569   1.494       .  S
C1260      C1261   1.406       .  A
C1260      C1265   1.406       .  A
C1261      C1262   1.410       .  A
C1261      H1266   1.082       .  S
C1262      C1576   1.492       .  S
C1262      C1263   1.409       .  A
C1263      C1264   1.405       .  A
C1263      H1267   1.083       .  S
C1264      C1489   1.488       .  S
C1264      C1265   1.402       .  A
C1265      H1268   1.082       .  S
C1269      C1549   1.492       .  S
C1269      C1270   1.406       .  A
C1269      C1274   1.405       .  A
C1270      C1271   1.409       .  A
C1270      H1275   1.083       .  S
C1271      C1559   1.484       .  S
C1271      C1272   1.408       .  A
C1272      C1273   1.404       .  A
C1272      H1276   1.084       .  S
C1273      C1479   1.485       .  S
C1273      C1274   1.402       .  A
C1274      H1277   1.083       .  S
C1278      C1516   1.477       .  S
C1278      C1279   1.406       .  A
C1278      C1283   1.404       .  A
C1279      C1280   1.406   1_655  A
C1279      H1284   1.083       .  S
C1280      C1509   1.485       .  S
C1280      C1281   1.405       .  A
C1281      C1282   1.398   1_455  A
C1281      H1285   1.083       .  S
C1282      C1469   1.482       .  S
C1282      C1283   1.399       .  A
C1283      H1286   1.084       .  S
C1287      C1456   1.491       .  S
C1287      C1292   1.405       .  A
C1288      C1289   1.411       .  A
C1288      H1293   1.082       .  S
C1289      C1446   1.499       .  S
C1289      C1290   1.410       .  A
C1290      C1291   1.404       .  A
C1290      H1294   1.083       .  S
C1291      C1486   1.489       .  S
C1292      H1295   1.083       .  S
O1296     Zr1308   2.427       .  S
O1296      C1298   1.287       .  A
O1297     Zr1334   2.447       .  S
O1297      C1298   1.291       .  A
C1298      C1396   1.489       .  S
O1299     Zr1311   2.418       .  S
O1299      C1301   1.285       .  A
O1300     Zr1335   2.448       .  S
O1300      C1301   1.292       .  A
C1301      C1419   1.487       .  S
O1302     Zr1311   2.439       .  S
O1302      C1304   1.287       .  A
O1303     Zr1334   2.432   1_554  S
O1303      C1304   1.287       .  A
C1304      C1459   1.471       .  S
O1305     Zr1308   2.433       .  S
O1305      C1307   1.286       .  A
O1306     Zr1335   2.436   1_556  S
O1306      C1307   1.289       .  A
C1307      C1436   1.465       .  S
Zr1308     O1309   2.434       .  S
Zr1308     O1310   2.435       .  S
Zr1308     O1314   2.364       .  S
Zr1308     O1315   2.361   1_556  S
Zr1308     O1338   2.365       .  S
Zr1308     O1340   2.369       .  S
O1309      H1352   0.990       .  S
O1310      H1351   0.990       .  S
O1310      H1355   0.990       .  S
Zr1311     O1312   2.437       .  S
Zr1311     O1313   2.435       .  S
Zr1311     O1315   2.367       .  S
Zr1311     O1314   2.359   1_554  S
Zr1311     O1339   2.363       .  S
Zr1311     O1341   2.376       .  S
O1312      H1353   0.990       .  S
O1312      H1356   0.990       .  S
O1313      H1346   0.990       .  S
O1314     Zr1334   2.381       .  S
O1315     Zr1335   2.401       .  S
O1315      H1342   0.965       .  S
O1316     Zr1328   2.410       .  S
O1316      C1318   1.279       .  A
O1317     Zr1335   2.468   1_556  S
O1317      C1318   1.292       .  A
C1318      C1386   1.496       .  S
O1319     Zr1331   2.416       .  S
O1319      C1321   1.283       .  A
O1320     Zr1334   2.438   1_554  S
O1320      C1321   1.288       .  A
C1321      C1406   1.461       .  S
O1322     Zr1331   2.426       .  S
O1322      C1324   1.286       .  A
O1323     Zr1335   2.454       .  S
O1323      C1324   1.292       .  A
C1324      C1449   1.487       .  S
O1325     Zr1328   2.414       .  S
O1325      C1327   1.284       .  A
O1326     Zr1334   2.443       .  S
O1326      C1327   1.290       .  A
C1327      C1429   1.481       .  S
Zr1328     O1329   2.437       .  S
Zr1328     O1330   2.434       .  S
Zr1328     O1336   2.364   1_556  S
Zr1328     O1337   2.360       .  S
Zr1328     O1340   2.365       .  S
Zr1328     O1338   2.366       .  S
O1329      H1349   0.990       .  S
O1329      H1354   0.990       .  S
O1330      H1350   0.990       .  S
Zr1331     O1332   2.433       .  S
Zr1331     O1333   2.434       .  S
Zr1331     O1337   2.368   1_554  S
Zr1331     O1336   2.365       .  S
Zr1331     O1341   2.363       .  S
Zr1331     O1339   2.371       .  S
O1332      H1348   0.990       .  S
O1333      H1347   0.990       .  S
O1333      H1357   0.990       .  S
Zr1334     O1337   2.380       .  S
Zr1334     O1339   2.394   1_556  S
Zr1334     O1340   2.394       .  S
Zr1335     O1336   2.388       .  S
Zr1335     O1338   2.395   1_554  S
Zr1335     O1341   2.397       .  S
O1336      H1344   0.966       .  S
O1339      H1343   0.966       .  S
O1340      H1345   0.966       .  S
C1358      C1409   1.488       .  S
C1358      C1359   1.409       .  A
C1358      C1363   1.407       .  A
C1359      C1360   1.406       .  A
C1359      H1364   1.082       .  S
C1360      C1499   1.485       .  S
C1361      C1362   1.398       .  A
C1361      H1365   1.084       .  S
C1362      C1416   1.470       .  S
C1363      H1366   1.083       .  S
C1367      C1399   1.486       .  S
C1367      C1368   1.407       .  A
C1368      H1373   1.083       .  S
C1369      C1476   1.489       .  S
C1369      C1370   1.402       .  A
C1370      C1371   1.409       .  A
C1370      H1374   1.083       .  S
C1371      C1389   1.492       .  S
C1371      C1372   1.410       .  A
C1372      H1375   1.083       .  S
C1376      C1426   1.485       .  S
C1376      C1377   1.404       .  A
C1376      C1381   1.407       .  A
C1377      C1378   1.400       .  A
C1377      H1382   1.084       .  S
C1378      C1466   1.479       .  S
C1379      C1380   1.404       .  A
C1379      H1383   1.082       .  S
C1380      C1439   1.488       .  S
C1381      H1384   1.083       .  S
C1385      C1386   1.409       .  A
C1385      C1390   1.411       .  A
C1385      H1392   1.083       .  S
C1386      C1387   1.416       .  A
C1387      C1388   1.388       .  A
C1387      F1394   1.358       .  S
C1388      C1389   1.399       .  A
C1388      H1393   1.084       .  S
C1389      C1390   1.412       .  A
C1390      F1391   1.357       .  S
C1395      C1396   1.407       .  A
C1395      C1400   1.393       .  A
C1395      H1402   1.083       .  S
C1396      C1397   1.411       .  A
C1397      C1398   1.407       .  A
C1397      F1404   1.357       .  S
C1398      C1399   1.407       .  A
C1398      H1403   1.083       .  S
C1399      C1400   1.405       .  A
C1400      F1401   1.358       .  S
C1405      C1406   1.399       .  A
C1405      C1410   1.400       .  A
C1405      H1412   1.084       .  S
C1406      C1407   1.401       .  A
C1407      C1408   1.394       .  A
C1407      F1414   1.358       .  S
C1408      C1409   1.407       .  A
C1408      H1413   1.083       .  S
C1409      C1410   1.413       .  A
C1410      F1411   1.357       .  S
C1415      C1416   1.403       .  A
C1415      C1420   1.403       .  A
C1415      H1422   1.083       .  S
C1416      C1417   1.397       .  A
C1417      C1418   1.389       .  A
C1417      F1424   1.358       .  S
C1418      C1419   1.412       .  A
C1418      H1423   1.083       .  S
C1419      C1420   1.410       .  A
C1420      F1421   1.357       .  S
C1425      C1426   1.408       .  A
C1425      C1430   1.404       .  A
C1425      H1432   1.083       .  S
C1426      C1427   1.406       .  A
C1427      C1428   1.391       .  A
C1427      F1434   1.358       .  S
C1428      C1429   1.406       .  A
C1428      H1433   1.084       .  S
C1429      C1430   1.407       .  A
C1430      F1431   1.357       .  S
C1435      C1436   1.399       .  A
C1435      C1440   1.400       .  A
C1435      H1442   1.083       .  S
C1436      C1437   1.403       .  A
C1437      C1438   1.396       .  A
C1437      F1444   1.358       .  S
C1438      C1439   1.405       .  A
C1438      H1443   1.083       .  S
C1439      C1440   1.414       .  A
C1440      F1441   1.357       .  S
C1445      C1446   1.406       .  A
C1445      C1450   1.394       .  A
C1445      H1452   1.083       .  S
C1446      C1447   1.414       .  A
C1447      C1448   1.408       .  A
C1447      F1454   1.357       .  S
C1448      C1449   1.406       .  A
C1448      H1453   1.083       .  S
C1449      C1450   1.408       .  A
C1450      F1451   1.358       .  S
C1455      C1456   1.406       .  A
C1455      C1460   1.398       .  A
C1455      H1462   1.083       .  S
C1456      C1457   1.413       .  A
C1457      C1458   1.402       .  A
C1457      F1464   1.357       .  S
C1458      C1459   1.401       .  A
C1458      H1463   1.083       .  S
C1459      C1460   1.404       .  A
C1460      F1461   1.358       .  S
C1465      C1466   1.404       .  A
C1465      C1470   1.396       .  A
C1465      H1472   1.083       .  S
C1467      C1468   1.396       .  A
C1467      F1474   1.357       .  S
C1468      H1473   1.083       .  S
C1469      C1470   1.407       .  A
C1470      F1471   1.357       .  S
C1475      C1476   1.405       .  A
C1475      C1480   1.396       .  A
C1475      H1482   1.083       .  S
C1477      C1478   1.402       .  A
C1477      F1484   1.357   1_545  S
C1478      H1483   1.083   1_545  S
C1479      C1480   1.407       .  A
C1480      F1481   1.358       .  S
C1485      C1490   1.398       .  A
C1485      H1492   1.083       .  S
C1486      C1487   1.409       .  A
C1487      C1488   1.400       .  A
C1487      F1494   1.357       .  S
C1488      C1489   1.405       .  A
C1488      H1493   1.083       .  S
C1490      F1491   1.357       .  S
C1495      C1496   1.404       .  A
C1495      C1500   1.396       .  A
C1495      H1502   1.083       .  S
C1497      C1498   1.397       .  A
C1497      F1504   1.358       .  S
C1498      H1503   1.083       .  S
C1499      C1500   1.408       .  A
C1500      F1501   1.357       .  S
C1505      C1506   1.407       .  A
C1505      C1510   1.406       .  A
C1505      H1512   1.083       .  S
C1507      C1508   1.385       .  A
C1507      F1514   1.358       .  S
C1508      C1509   1.401   1_655  A
C1508      H1513   1.083       .  S
C1510      F1511   1.357       .  S
C1515      C1516   1.406       .  A
C1515      C1520   1.404       .  A
C1515      H1522   1.083       .  S
C1517      C1518   1.388       .  A
C1517      F1524   1.358       .  S
C1518      H1523   1.083       .  S
C1519      C1520   1.410       .  A
C1520      F1521   1.357       .  S
C1525      C1526   1.407       .  A
C1525      C1530   1.405       .  A
C1525      H1532   1.083       .  S
C1527      C1528   1.387       .  A
C1527      F1534   1.358       .  S
C1528      C1529   1.400   1_655  A
C1528      H1533   1.083       .  S
C1530      F1531   1.357       .  S
C1535      C1540   1.387       .  A
C1535      H1542   1.084       .  S
C1536      C1537   1.406       .  A
C1537      C1538   1.404       .  A
C1537      F1544   1.357       .  S
C1538      C1539   1.408       .  A
C1538      H1543   1.083       .  S
C1540      F1541   1.358       .  S
C1545      C1550   1.389       .  A
C1545      H1552   1.084       .  S
C1546      C1547   1.408       .  A
C1547      C1548   1.409       .  A
C1547      F1554   1.357       .  S
C1548      H1553   1.083       .  S
C1549      C1550   1.407       .  A
C1550      F1551   1.358       .  S
C1555      C1560   1.395       .  A
C1555      H1562   1.084       .  S
C1556      C1557   1.405       .  A
C1557      C1558   1.405       .  A
C1557      F1564   1.357       .  S
C1558      C1559   1.408       .  A
C1558      H1563   1.083       .  S
C1560      F1561   1.358       .  S
C1565      C1566   1.405       .  A
C1565      C1570   1.407       .  A
C1565      H1572   1.083       .  S
C1567      C1568   1.390       .  A
C1567      F1574   1.358       .  S
C1568      C1569   1.403       .  A
C1568      H1573   1.083       .  S
C1570      F1571   1.357       .  S
C1575      C1576   1.411       .  A
C1575      C1580   1.403       .  A
C1575      H1582   1.083       .  S
C1576      C1577   1.410       .  A
C1577      C1578   1.396       .  A
C1577      F1584   1.357       .  S
C1578      C1579   1.400       .  A
C1578      H1583   1.084       .  S
C1579      C1580   1.402       .  A
C1580      F1581   1.357       .  S
