geometry optimzed in LAMMPS
_audit_creation_date              2020-11-30 
_audit_creation_method            'lammps2cif' 
_symmetry_space_group_name_H-M    'P1' 
_symmetry_Int_Tables_number       1 
_symmetry_cell_setting            triclinic 
loop_ 
_symmetry_equiv_pos_as_xyz 
  x,y,z 
_cell_length_a                    34.57853756 
_cell_length_b                    34.57806942523797 
_cell_length_c                    44.3600328656152 
_cell_angle_alpha                 90.07003227704665 
_cell_angle_beta                  90.00159141622092 
_cell_angle_gamma                 90.05642117651857 
loop_ 
_atom_site_label 
_atom_site_type_symbol 
_atom_site_fract_x 
_atom_site_fract_y 
_atom_site_fract_z 
_atom_site_charge 
N1          N  0.00308075  0.20825130  0.03305377    -0.34900
N2          N  0.00045634  0.29177128  0.03332409    -0.55500
N3          N  0.00258146  0.29165116  0.46677898    -0.34900
N4          N  0.50022467  0.20812842  0.46652683    -0.55500
C5          C  0.99565584  0.21491102  0.06266177     0.28700
C6          C  0.49489274  0.17064094  0.02743690     0.28700
C7          C  0.99439310  0.32923313  0.47243510     0.28700
C8          C  0.49488233  0.28494644  0.43721642     0.28700
C9          C  0.00704185  0.28588092  0.06309282     0.37300
C10         C  0.00606968  0.32991556  0.02822411     0.37300
C11         C  0.50608344  0.17003038  0.47160090     0.37300
C12         C  0.50658582  0.21405950  0.43673586     0.37300
C13         C  0.98291824  0.18102017  0.07605237    -0.20200
C14         C  0.48228808  0.15316495  0.05385241    -0.20200
C15         C  0.98149179  0.34664768  0.44608948    -0.20200
C16         C  0.48194262  0.31877888  0.42389277    -0.20200
C17         C  0.01661305  0.32046954  0.07700355    -0.21200
C18         C  0.01614561  0.34831391  0.05493963    -0.21200
C19         C  0.51610339  0.15170159  0.44485546    -0.21200
C20         C  0.51628269  0.17954602  0.42279103    -0.21200
C21         C  0.00190023  0.25021995  0.07817851    -0.16600
C22         C  0.50043149  0.15108178  0.99960133    -0.16600
C23         C  0.50111938  0.24966756  0.42167080    -0.16600
C24         C  0.00018022  0.34881962  0.00023233    -0.16600
H25         H  0.97497684  0.17675105  0.09941640     0.16300
H26         H  0.47369106  0.12332257  0.05692168     0.16300
H27         H  0.97282248  0.37645992  0.44306371     0.16300
H28         H  0.47377942  0.32300557  0.40057155     0.16300
H29         H  0.02297017  0.32521065  0.10061459     0.14600
H30         H  0.02232121  0.37870280  0.05830420     0.14600
H31         H  0.52242116  0.12135636  0.44147712     0.14600
H32         H  0.52252266  0.17485077  0.39915706     0.14600
H33         H  0.01695655  0.22698380  0.01829546     0.27900
H34         H  0.01665371  0.27298744  0.48145656     0.27900
N35         N  0.00306204  0.29154013  0.21681078    -0.35500
N36         N  0.00022137  0.29164468  0.28333417    -0.55500
N37         N  0.00268212  0.20812531  0.28306801    -0.34900
N38         N  0.00055829  0.20801545  0.21652388    -0.55500
C39         C  0.99482711  0.32912182  0.22243495     0.28700
C40         C  0.99563894  0.28486515  0.18720221     0.28700
C41         C  0.99497227  0.21479828  0.31263113     0.28700
C42         C  0.99453061  0.17052041  0.27740351     0.28700
C43         C  0.00603005  0.32976392  0.27826828     0.37300
C44         C  0.00658230  0.28572533  0.31312519     0.37300
C45         C  0.00713478  0.21393713  0.18675675     0.37300
C46         C  0.00622066  0.16988827  0.22161608     0.37300
C47         C  0.98219332  0.34656464  0.19602415    -0.20200
C48         C  0.98285191  0.31871774  0.17381944    -0.20200
C49         C  0.98206922  0.18092225  0.32594752    -0.20200
C50         C  0.98164588  0.15305969  0.30374533    -0.20200
C51         C  0.01601812  0.34811800  0.30501900    -0.21200
C52         C  0.01622792  0.32026727  0.32707846    -0.21200
C53         C  0.01675577  0.17938552  0.17283991    -0.21200
C54         C  0.01632338  0.15153200  0.19489812    -0.21200
C55         C  0.00035517  0.34869357  0.25027091    -0.16600
C56         C  0.00193109  0.24958306  0.17167757    -0.16600
C57         C  0.00034059  0.15095489  0.24960073    -0.16600
C58         C  0.00115674  0.25009508  0.32818290    -0.16600
H59         H  0.97355979  0.37638081  0.19296167     0.16300
H60         H  0.97489979  0.32296809  0.15045695     0.16300
H61         H  0.97390668  0.17666402  0.34926678     0.16300
H62         H  0.97300198  0.12322218  0.30676534     0.16300
H63         H  0.02229296  0.37848324  0.30840458     0.14600
H64         H  0.02245350  0.32497632  0.35071485     0.14600
H65         H  0.02311843  0.17467328  0.14922810     0.14600
H66         H  0.02253691  0.12116396  0.19152852     0.14600
H67         H  0.01697021  0.27285049  0.23156393     0.27900
H68         H  0.01672992  0.22683830  0.26839430     0.27900
Zn69       Zn  0.46593316  0.46644008  0.02378636     1.49700
Zn70       Zn  0.03285721  0.46651980  0.47597723     1.49400
Zn71       Zn  0.46588729  0.03344703  0.47605367     1.49100
Zn72       Zn  0.03295033  0.03341292  0.02381074     1.49500
O73         O  0.99938205  0.49996332  0.99990269    -1.82400
O74         O  0.47604371  0.40964049  0.01696748    -0.73100
O75         O  0.02227544  0.47709200  0.43331738    -0.72900
O76         O  0.40906450  0.02331213  0.48288568    -0.72400
O77         O  0.02303268  0.40975558  0.48290020    -0.73100
O78         O  0.40912955  0.47619480  0.01681033    -0.72700
O79         O  0.47656015  0.02280782  0.43334485    -0.73300
O80         O  0.02334901  0.09015630  0.01676096    -0.72600
O81         O  0.08964337  0.47637897  0.48290967    -0.73400
O82         O  0.47601728  0.09027451  0.48296500    -0.72800
O83         O  0.08970421  0.02330442  0.01704650    -0.73300
O84         O  0.02227145  0.02294288  0.06650990    -0.73200
O85         O  0.47656604  0.47713151  0.06647041    -0.73000
C86         C  0.99966304  0.39170302  0.99999883     0.78800
C87         C  0.99942935  0.49994897  0.41987596     0.79300
C88         C  0.39110085  0.49962658  0.99978283     0.78300
C89         C  0.99985601  0.10820034  0.99980071     0.78700
C90         C  0.10765606  0.49973259  0.00005315     0.79800
C91         C  0.99943283  0.50002385  0.07994761     0.78800
Zn92       Zn  0.46587366  0.46630686  0.27377360     1.49700
Zn93       Zn  0.03291915  0.03329792  0.27385155     1.49400
Zn94       Zn  0.03295308  0.46638307  0.22603280     1.49100
Zn95       Zn  0.46601615  0.03329635  0.22602850     1.49500
O96         O  0.99941651  0.49980963  0.24992790    -1.82400
O97         O  0.47655817  0.47696677  0.31648081    -0.73100
O98         O  0.08969770  0.02349742  0.26692625    -0.72900
O99         O  0.02330821  0.40964196  0.23311121    -0.72400
O100        O  0.02232491  0.02272056  0.31651148    -0.73100
O101        O  0.47595090  0.40947843  0.26687552    -0.72700
O102        O  0.08971424  0.47654721  0.23279424    -0.73300
O103        O  0.47661658  0.02256721  0.18334806    -0.72600
O104        O  0.02313817  0.09005067  0.26693070    -0.73400
O105        O  0.02227471  0.47679804  0.18332865    -0.72800
O106        O  0.47619947  0.09010526  0.23282929    -0.73300
O107        O  0.40920175  0.02353440  0.23302602    -0.73200
O108        O  0.40905769  0.47641917  0.26695063    -0.73000
C109        C  0.99944964  0.49984751  0.32995123     0.78800
C110        C  0.10769112  0.50013454  0.24978836     0.79300
C111        C  0.99979058  0.39157355  0.25006280     0.78300
C112        C  0.99945279  0.49968002  0.16988086     0.78700
C113        C  0.99981305  0.10806984  0.24981615     0.79800
C114        C  0.39113414  0.50010844  0.25006194     0.78800
N115        N  0.29111813  0.49676970  0.03307850    -0.34900
N116        N  0.29109136  0.50001675  0.46653322    -0.55500
N117        N  0.20760984  0.49767212  0.46681428    -0.34900
N118        N  0.20761406  0.49922141  0.03332733    -0.55500
C119        C  0.32872487  0.50488510  0.02743727     0.28700
C120        C  0.28448993  0.50448129  0.06265280     0.28700
C121        C  0.21424698  0.50583405  0.43733559     0.28700
C122        C  0.17005403  0.50579260  0.47257240     0.28700
C123        C  0.32914546  0.49377668  0.47158740     0.37300
C124        C  0.28503558  0.49378773  0.43672053     0.37300
C125        C  0.21358542  0.49276635  0.06309692     0.37300
C126        C  0.16951806  0.49329521  0.02821271     0.37300
C127        C  0.34625441  0.51766453  0.05380793    -0.20200
C128        C  0.31841502  0.51729149  0.07599739    -0.20200
C129        C  0.18041744  0.51909792  0.42418024    -0.20200
C130        C  0.15259617  0.51920495  0.44639716    -0.20200
C131        C  0.34731950  0.48366587  0.44480767    -0.21200
C132        C  0.31942704  0.48380753  0.42274676    -0.21200
C133        C  0.17910248  0.48287657  0.07699045    -0.21200
C134        C  0.15123591  0.48303594  0.05490629    -0.21200
C135        C  0.34820340  0.49921373  0.99959834    -0.16600
C136        C  0.24917991  0.49845362  0.07818876    -0.16600
C137        C  0.15052279  0.49936843  0.00027876    -0.16600
C138        C  0.24941277  0.49953340  0.42169211    -0.16600
H139        H  0.37610766  0.52626334  0.05684354     0.16300
H140        H  0.32272630  0.52542175  0.09933062     0.16300
H141        H  0.17614310  0.52760037  0.40094068     0.16300
H142        H  0.12277438  0.52792264  0.44349126     0.16300
H143        H  0.37759250  0.47705089  0.44141006     0.14600
H144        H  0.32400050  0.47751333  0.39910944     0.14600
H145        H  0.17444365  0.47653403  0.10060164     0.14600
H146        H  0.12088996  0.47666821  0.05825641     0.14600
H147        H  0.27236114  0.48283100  0.01833578     0.27900
H148        H  0.22625849  0.48325238  0.48131223     0.27900
N149        N  0.29115470  0.50302323  0.21677763    -0.34900
N150        N  0.20764750  0.50063952  0.21652928    -0.55500
N151        N  0.20764613  0.50222872  0.28304110    -0.34900
N152        N  0.29112298  0.49980323  0.28332531    -0.55500
C153        C  0.28449996  0.49530531  0.18720539     0.28700
C154        C  0.32873621  0.49486800  0.22242138     0.28700
C155        C  0.17006903  0.49413034  0.27728402     0.28700
C156        C  0.21426096  0.49407846  0.31252212     0.28700
C157        C  0.21363364  0.50709359  0.18676067     0.37300
C158        C  0.16956810  0.50659165  0.22164287     0.37300
C159        C  0.32919709  0.50599434  0.27826915     0.37300
C160        C  0.28508718  0.50604987  0.31313692     0.37300
C161        C  0.31838341  0.48244892  0.17386443    -0.20200
C162        C  0.34622359  0.48205575  0.19605399    -0.20200
C163        C  0.15257514  0.48074480  0.30346307    -0.20200
C164        C  0.18039534  0.48084745  0.32568100    -0.20200
C165        C  0.17917751  0.51701340  0.17286761    -0.21200
C166        C  0.15131167  0.51686859  0.19495076    -0.21200
C167        C  0.34740469  0.51609082  0.30504752    -0.21200
C168        C  0.31951190  0.51599087  0.32710894    -0.21200
C169        C  0.24920721  0.50136657  0.17166813    -0.16600
C170        C  0.34823669  0.50053337  0.25025771    -0.16600
C171        C  0.24944380  0.50035569  0.32816517    -0.16600
C172        C  0.15055758  0.50052033  0.24957336    -0.16600
H173        H  0.32266663  0.47430154  0.15053369     0.16300
H174        H  0.37604993  0.47342168  0.19302104     0.16300
H175        H  0.12273090  0.47204752  0.30637135     0.16300
H176        H  0.17609765  0.47236039  0.34892306     0.16300
H177        H  0.17453416  0.52336133  0.14925677     0.14600
H178        H  0.12098203  0.52325613  0.19160143     0.14600
H179        H  0.37769910  0.52266920  0.30844408     0.14600
H180        H  0.32410629  0.52228632  0.35074529     0.14600
H181        H  0.27244182  0.51699276  0.23151696     0.27900
H182        H  0.22633709  0.51662499  0.26853822     0.27900
C183        C  0.24905886  0.49987544  0.38864240    -0.11600
C184        C  0.24907629  0.50003347  0.36121491    -0.13100
C185        C  0.24931326  0.49944110  0.11122273    -0.11600
C186        C  0.24932647  0.50036848  0.13863442    -0.13100
C187        C  0.99946174  0.49987619  0.36154474    -0.11600
C188        C  0.99945336  0.49992851  0.38828245    -0.13100
C189        C  0.99950758  0.49974562  0.13828386    -0.11600
C190        C  0.99950126  0.49992524  0.11154453    -0.13100
C191        C  0.00088416  0.24989346  0.36121840    -0.11600
C192        C  0.00087167  0.24986357  0.38863520    -0.13100
C193        C  0.00188088  0.24982814  0.13863746    -0.11600
C194        C  0.00187086  0.24998147  0.11121870    -0.13100
N195        N  0.00307567  0.20825710  0.53305201    -0.34900
N196        N  0.00046276  0.29177695  0.53332328    -0.55500
N197        N  0.00257272  0.29164483  0.96678008    -0.34900
N198        N  0.50022749  0.20812188  0.96652861    -0.55500
C199        C  0.99565165  0.21491700  0.56266014     0.28700
C200        C  0.49488275  0.17064794  0.52743452     0.28700
C201        C  0.99438144  0.32922622  0.97243597     0.28700
C202        C  0.49487470  0.28493935  0.93721745     0.28700
C203        C  0.00704472  0.28588591  0.56309245     0.37300
C204        C  0.00607806  0.32992109  0.52822382     0.37300
C205        C  0.50609088  0.17002450  0.97160287     0.37300
C206        C  0.50658593  0.21405339  0.93673725     0.37300
C207        C  0.98290940  0.18102747  0.57605008    -0.20200
C208        C  0.48227538  0.15317298  0.55384963    -0.20200
C209        C  0.98147911  0.34663968  0.94609023    -0.20200
C210        C  0.48193257  0.31877081  0.92389358    -0.20200
C211        C  0.01661560  0.32047410  0.57700400    -0.21200
C212        C  0.01615140  0.34831881  0.55494020    -0.21200
C213        C  0.51611094  0.15169651  0.94485714    -0.21200
C214        C  0.51628566  0.17954071  0.92279241    -0.21200
C215        C  0.00190014  0.25022477  0.57817761    -0.16600
C216        C  0.50042073  0.15108828  0.49959908    -0.16600
C217        C  0.50111526  0.24966093  0.92167198    -0.16600
C218        C  0.00019219  0.34882579  0.50023177    -0.16600
H219        H  0.97496731  0.17675874  0.59941401     0.16300
H220        H  0.47367446  0.12333163  0.55691833     0.16300
H221        H  0.97280791  0.37645135  0.94306430     0.16300
H222        H  0.47376982  0.32299697  0.90057220     0.16300
H223        H  0.02297006  0.32521484  0.60061550     0.14600
H224        H  0.02232725  0.37870756  0.55830536     0.14600
H225        H  0.52243169  0.12135189  0.94147891     0.14600
H226        H  0.52252450  0.17484579  0.89915823     0.14600
H227        H  0.01695440  0.22698801  0.51829403     0.27900
H228        H  0.01664650  0.27298258  0.98145769     0.27900
N229        N  0.00306178  0.29153946  0.71681122    -0.35500
N230        N  0.00021657  0.29164274  0.78333532    -0.55500
N231        N  0.00267887  0.20812337  0.78306793    -0.34900
N232        N  0.00055788  0.20801488  0.71652309    -0.55500
C233        C  0.99482790  0.32912128  0.72243573     0.28700
C234        C  0.99563986  0.28486538  0.68720229     0.28700
C235        C  0.99496898  0.21479513  0.81263125     0.28700
C236        C  0.99452936  0.17051821  0.77740282     0.28700
C237        C  0.00602719  0.32976184  0.77826977     0.37300
C238        C  0.00657697  0.28572258  0.81312642     0.37300
C239        C  0.00713439  0.21393704  0.68675598     0.37300
C240        C  0.00621990  0.16988756  0.72161503     0.37300
C241        C  0.98219606  0.34656515  0.69602475    -0.20200
C242        C  0.98285464  0.31871876  0.67381966    -0.20200
C243        C  0.98206794  0.18091802  0.82594717    -0.20200
C244        C  0.98164592  0.15305604  0.80374452    -0.20200
C245        C  0.01601550  0.34811497  0.80502083    -0.21200
C246        C  0.01622359  0.32026391  0.82708009    -0.21200
C247        C  0.01675503  0.17938554  0.67283883    -0.21200
C248        C  0.01632243  0.15153164  0.69489682    -0.21200
C249        C  0.00035512  0.34869227  0.75027222    -0.16600
C250        C  0.00193148  0.24958347  0.67167713    -0.16600
C251        C  0.00034001  0.15095369  0.74959962    -0.16600
C252        C  0.00115206  0.25009173  0.82818366    -0.16600
H253        H  0.97356367  0.37638168  0.69296240     0.16300
H254        H  0.97490381  0.32297001  0.65045700     0.16300
H255        H  0.97390602  0.17665871  0.84926647     0.16300
H256        H  0.97300382  0.12321793  0.80676417     0.16300
H257        H  0.02229242  0.37847973  0.80840667     0.14600
H258        H  0.02244966  0.32497220  0.85071650     0.14600
H259        H  0.02311770  0.17467371  0.64922696     0.14600
H260        H  0.02253573  0.12116360  0.69152691     0.14600
H261        H  0.01696848  0.27284910  0.73156469     0.27900
H262        H  0.01672544  0.22683745  0.76839440     0.27900
Zn263      Zn  0.46593817  0.46644415  0.52378420     1.49700
Zn264      Zn  0.03284959  0.46651090  0.97597655     1.49400
Zn265      Zn  0.46588658  0.03344418  0.97605692     1.49100
Zn266      Zn  0.03294763  0.03342392  0.52381040     1.49500
O267        O  0.99938482  0.49997023  0.49990117    -1.82400
O268        O  0.47605141  0.40964566  0.51696442    -0.73100
O269        O  0.02227002  0.47708893  0.93331706    -0.72900
O270        O  0.40906298  0.02331475  0.98288975    -0.72400
O271        O  0.02301817  0.40974826  0.98289749    -0.73100
O272        O  0.40913406  0.47619505  0.51680859    -0.72700
O273        O  0.47655658  0.02280659  0.93334740    -0.73300
O274        O  0.02333887  0.09016506  0.51676100    -0.72600
O275        O  0.08963722  0.47635965  0.98290979    -0.73400
O276        O  0.47602305  0.09026995  0.98296861    -0.72800
O277        O  0.08970313  0.02332452  0.51704583    -0.73300
O278        O  0.02227027  0.02295136  0.56650952    -0.73200
O279        O  0.47657097  0.47713400  0.56646860    -0.73000
C280        C  0.99967494  0.39170924  0.49999877     0.78800
C281        C  0.99942491  0.49994824  0.91987700     0.79300
C282        C  0.39110385  0.49962439  0.49978005     0.78300
C283        C  0.99984650  0.10820696  0.49979901     0.78700
C284        C  0.10765860  0.49975513  0.50005273     0.79800
C285        C  0.99943517  0.50002826  0.57994657     0.78800
Zn286      Zn  0.46587557  0.46630656  0.77377443     1.49700
Zn287      Zn  0.03292070  0.03329756  0.77385146     1.49400
Zn288      Zn  0.03295391  0.46638177  0.72603293     1.49100
Zn289      Zn  0.46601695  0.03329477  0.72602767     1.49500
O290        O  0.99941783  0.49980905  0.74992787    -1.82400
O291        O  0.47655781  0.47696918  0.81648155    -0.73100
O292        O  0.08969966  0.02349534  0.76692689    -0.72900
O293        O  0.02330920  0.40964048  0.73311213    -0.72400
O294        O  0.02232437  0.02272301  0.81651198    -0.73100
O295        O  0.47595336  0.40947791  0.76687763    -0.72700
O296        O  0.08971470  0.47654568  0.73279446    -0.73300
O297        O  0.47661959  0.02256650  0.68334716    -0.72600
O298        O  0.02313987  0.09004992  0.76692848    -0.73400
O299        O  0.02227660  0.47679630  0.68332824    -0.72800
O300        O  0.47619875  0.09010386  0.73282886    -0.73300
O301        O  0.40920235  0.02353047  0.73302483    -0.73200
O302        O  0.40905983  0.47641678  0.76695075    -0.73000
C303        C  0.99944843  0.49985082  0.82995197     0.78800
C304        C  0.10769229  0.50013224  0.74978871     0.79300
C305        C  0.99979205  0.39157246  0.75006444     0.78300
C306        C  0.99945572  0.49967904  0.66988012     0.78700
C307        C  0.99981341  0.10806869  0.74981473     0.79800
C308        C  0.39113549  0.50010463  0.75006145     0.78800
N309        N  0.29112103  0.49677453  0.53307826    -0.34900
N310        N  0.29108926  0.50001153  0.96653350    -0.55500
N311        N  0.20760762  0.49764985  0.96681325    -0.34900
N312        N  0.20761671  0.49924366  0.53332810    -0.55500
C313        C  0.32872952  0.50488268  0.52743692     0.28700
C314        C  0.28449483  0.50448668  0.56265294     0.28700
C315        C  0.21424423  0.50581245  0.93733469     0.28700
C316        C  0.17005065  0.50576488  0.97257101     0.28700
C317        C  0.32914399  0.49377627  0.97158846     0.37300
C318        C  0.28503503  0.49377963  0.93672098     0.37300
C319        C  0.21358776  0.49278620  0.56309738     0.37300
C320        C  0.16952009  0.49332095  0.52821358     0.37300
C321        C  0.34626185  0.51765721  0.55380791    -0.20200
C322        C  0.31842272  0.51728894  0.57599761    -0.20200
C323        C  0.18041276  0.51907024  0.92417859    -0.20200
C324        C  0.15259115  0.51917362  0.94639517    -0.20200
C325        C  0.34731988  0.48366582  0.94480946    -0.21200
C326        C  0.31942804  0.48380288  0.92274811    -0.21200
C327        C  0.17910397  0.48289932  0.57699091    -0.21200
C328        C  0.15123725  0.48306206  0.55490695    -0.21200
C329        C  0.34820630  0.49921101  0.49959708    -0.16600
C330        C  0.24918348  0.49846652  0.57818891    -0.16600
C331        C  0.15052539  0.49939541  0.50027959    -0.16600
C332        C  0.24941171  0.49951886  0.92169186    -0.16600
H333        H  0.37611670  0.52625030  0.55684363     0.16300
H334        H  0.32273595  0.52541762  0.59933097     0.16300
H335        H  0.17613766  0.52757186  0.90093894     0.16300
H336        H  0.12276829  0.52788733  0.94348866     0.16300
H337        H  0.37759367  0.47705389  0.94141261     0.14600
H338        H  0.32400281  0.47750733  0.89911117     0.14600
H339        H  0.17444496  0.47655517  0.60060180     0.14600
H340        H  0.12089092  0.47669617  0.55825707     0.14600
H341        H  0.27236103  0.48284155  0.51833559     0.27900
H342        H  0.22625924  0.48323396  0.98131217     0.27900
N343        N  0.29115578  0.50302132  0.71677820    -0.34900
N344        N  0.20764875  0.50063851  0.71652921    -0.55500
N345        N  0.20764761  0.50222073  0.78304079    -0.34900
N346        N  0.29112441  0.49979497  0.78332537    -0.55500
C347        C  0.28450098  0.49530538  0.68720559     0.28700
C348        C  0.32873703  0.49486393  0.72242159     0.28700
C349        C  0.17007037  0.49412283  0.77728332     0.28700
C350        C  0.21426236  0.49406726  0.81252139     0.28700
C351        C  0.21363499  0.50709493  0.68676093     0.37300
C352        C  0.16956912  0.50658931  0.72164290     0.37300
C353        C  0.32919847  0.50598681  0.77826956     0.37300
C354        C  0.28508840  0.50603946  0.81313722     0.37300
C355        C  0.31838365  0.48244757  0.67386438    -0.20200
C356        C  0.34622366  0.48205169  0.69605401    -0.20200
C357        C  0.15257668  0.48073399  0.80346136    -0.20200
C358        C  0.18039693  0.48083427  0.82567930    -0.20200
C359        C  0.17917862  0.51701447  0.67286807    -0.21200
C360        C  0.15131252  0.51686717  0.69495104    -0.21200
C361        C  0.34740589  0.51608139  0.80504845    -0.21200
C362        C  0.31951299  0.51597963  0.82710980    -0.21200
C363        C  0.24920888  0.50137006  0.67166838    -0.16600
C364        C  0.34823795  0.50052828  0.75025778    -0.16600
C365        C  0.24944489  0.50034411  0.82816495    -0.16600
C366        C  0.15055878  0.50051654  0.74957328    -0.16600
H367        H  0.32266654  0.47430113  0.65053341     0.16300
H368        H  0.37604955  0.47341616  0.69302090     0.16300
H369        H  0.12273243  0.47203638  0.80636901     0.16300
H370        H  0.17609931  0.47234470  0.84892081     0.16300
H371        H  0.17453535  0.52336385  0.64925747     0.14600
H372        H  0.12098269  0.52325393  0.69160178     0.14600
H373        H  0.37770020  0.52265988  0.80844539     0.14600
H374        H  0.32410720  0.52227352  0.85074642     0.14600
H375        H  0.27244400  0.51699118  0.73151752     0.27900
H376        H  0.22633805  0.51661874  0.76853925     0.27900
C377        C  0.24905889  0.49986152  0.88864216    -0.11600
C378        C  0.24907683  0.50002043  0.86121468    -0.13100
C379        C  0.24931704  0.49945254  0.61122290    -0.11600
C380        C  0.24932924  0.50037695  0.63863461    -0.13100
C381        C  0.99945881  0.49988078  0.86154560    -0.11600
C382        C  0.99944927  0.49993141  0.88828339    -0.13100
C383        C  0.99951145  0.49974539  0.63828298    -0.11600
C384        C  0.99950465  0.49992699  0.61154359    -0.13100
C385        C  0.00087991  0.24988877  0.86121932    -0.11600
C386        C  0.00086754  0.24985725  0.88863622    -0.13100
C387        C  0.00188161  0.24982960  0.63863685    -0.11600
C388        C  0.00187129  0.24998479  0.61121798    -0.13100
N389        N  0.00308078  0.70825123  0.03305380    -0.34900
N390        N  0.00045636  0.79177134  0.03332408    -0.55500
N391        N  0.00258146  0.79165123  0.46677893    -0.34900
N392        N  0.50022480  0.70812847  0.46652682    -0.55500
C393        C  0.99565585  0.71491101  0.06266174     0.28700
C394        C  0.49489290  0.67064091  0.02743691     0.28700
C395        C  0.99439303  0.82923316  0.47243507     0.28700
C396        C  0.49488218  0.78494645  0.43721639     0.28700
C397        C  0.00704176  0.78588097  0.06309282     0.37300
C398        C  0.00606960  0.82991563  0.02822410     0.37300
C399        C  0.50608359  0.67003042  0.47160088     0.37300
C400        C  0.50658586  0.71405953  0.43673584     0.37300
C401        C  0.98291830  0.68102010  0.07605236    -0.20200
C402        C  0.48228817  0.65316488  0.05385240    -0.20200
C403        C  0.98149163  0.84664771  0.44608948    -0.20200
C404        C  0.48194250  0.81877892  0.42389273    -0.20200
C405        C  0.01661293  0.82046959  0.07700357    -0.21200
C406        C  0.01614546  0.84831397  0.05493965    -0.21200
C407        C  0.51610351  0.65170161  0.44485542    -0.21200
C408        C  0.51628271  0.67954604  0.42279099    -0.21200
C409        C  0.00190017  0.75021995  0.07817850    -0.16600
C410        C  0.50043170  0.65108174  0.99960136    -0.16600
C411        C  0.50111928  0.74966757  0.42167078    -0.16600
C412        C  0.00018011  0.84881970  0.00023232    -0.16600
H413        H  0.97497699  0.67675092  0.09941640     0.16300
H414        H  0.47369123  0.62332246  0.05692164     0.16300
H415        H  0.97282223  0.87645993  0.44306375     0.16300
H416        H  0.47377937  0.82300569  0.40057151     0.16300
H417        H  0.02297009  0.82521074  0.10061459     0.14600
H418        H  0.02232106  0.87870286  0.05830421     0.14600
H419        H  0.52242134  0.62135639  0.44147710     0.14600
H420        H  0.52252257  0.67485079  0.39915700     0.14600
H421        H  0.01695672  0.72698394  0.01829533     0.27900
H422        H  0.01665386  0.77298755  0.48145652     0.27900
N423        N  0.00306186  0.79154015  0.21681076    -0.35500
N424        N  0.00022129  0.79164466  0.28333417    -0.55500
N425        N  0.00268216  0.70812532  0.28306803    -0.34900
N426        N  0.00055824  0.70801551  0.21652385    -0.55500
C427        C  0.99482699  0.82912177  0.22243496     0.28700
C428        C  0.99563880  0.78486515  0.18720222     0.28700
C429        C  0.99497242  0.71479831  0.31263111     0.28700
C430        C  0.99453062  0.67052050  0.27740348     0.28700
C431        C  0.00602989  0.82976391  0.27826830     0.37300
C432        C  0.00658236  0.78572531  0.31312518     0.37300
C433        C  0.00713476  0.71393720  0.18675674     0.37300
C434        C  0.00622064  0.66988833  0.22161606     0.37300
C435        C  0.98219320  0.84656461  0.19602417    -0.20200
C436        C  0.98285177  0.81871775  0.17381944    -0.20200
C437        C  0.98206933  0.68092228  0.32594752    -0.20200
C438        C  0.98164595  0.65305972  0.30374534    -0.20200
C439        C  0.01601796  0.84811799  0.30501902    -0.21200
C440        C  0.01622789  0.82026724  0.32707846    -0.21200
C441        C  0.01675574  0.67938558  0.17283988    -0.21200
C442        C  0.01632333  0.65153204  0.19489808    -0.21200
C443        C  0.00035506  0.84869356  0.25027091    -0.16600
C444        C  0.00193104  0.74958312  0.17167755    -0.16600
C445        C  0.00034059  0.65095495  0.24960072    -0.16600
C446        C  0.00115690  0.75009506  0.32818290    -0.16600
H447        H  0.97355969  0.87638079  0.19296171     0.16300
H448        H  0.97489968  0.82296812  0.15045695     0.16300
H449        H  0.97390680  0.67666411  0.34926680     0.16300
H450        H  0.97300208  0.62322221  0.30676536     0.16300
H451        H  0.02229280  0.87848322  0.30840463     0.14600
H452        H  0.02245352  0.82497625  0.35071485     0.14600
H453        H  0.02311839  0.67467339  0.14922806     0.14600
H454        H  0.02253686  0.62116400  0.19152846     0.14600
H455        H  0.01697017  0.77285040  0.23156399     0.27900
H456        H  0.01673014  0.72683850  0.26839418     0.27900
Zn457      Zn  0.46593299  0.96644014  0.02378637     1.49700
Zn458      Zn  0.03285704  0.96651990  0.47597724     1.49400
Zn459      Zn  0.46588747  0.53344708  0.47605368     1.49100
Zn460      Zn  0.03295059  0.53341294  0.02381073     1.49500
O461        O  0.99938185  0.99996339  0.99990266    -1.82400
O462        O  0.47604357  0.90964057  0.01696747    -0.73100
O463        O  0.02227529  0.97709203  0.43331740    -0.72900
O464        O  0.40906465  0.52331218  0.48288567    -0.72400
O465        O  0.02303254  0.90975564  0.48290019    -0.73100
O466        O  0.40912937  0.97619482  0.01681038    -0.72700
O467        O  0.47656049  0.52280784  0.43334489    -0.73300
O468        O  0.02334917  0.59015625  0.01676089    -0.72600
O469        O  0.08964321  0.97637901  0.48290963    -0.73400
O470        O  0.47601743  0.59027457  0.48296499    -0.72800
O471        O  0.08970440  0.52330447  0.01704647    -0.73300
O472        O  0.02227164  0.52294296  0.06650992    -0.73200
O473        O  0.47656591  0.97713141  0.06647043    -0.73000
C474        C  0.99966290  0.89170312  0.99999882     0.78800
C475        C  0.99942920  0.99994896  0.41987596     0.79300
C476        C  0.39110070  0.99962662  0.99978287     0.78300
C477        C  0.99985615  0.60820029  0.99980066     0.78700
C478        C  0.10765589  0.99973259  0.00005316     0.79800
C479        C  0.99943268  0.00002375  0.07994762     0.78800
Zn480      Zn  0.46587349  0.96630684  0.27377359     1.49700
Zn481      Zn  0.03291931  0.53329799  0.27385150     1.49400
Zn482      Zn  0.03295293  0.96638310  0.22603279     1.49100
Zn483      Zn  0.46601629  0.53329644  0.22602850     1.49500
O484        O  0.99941637  0.99980957  0.24992791    -1.82400
O485        O  0.47655795  0.97696672  0.31648078    -0.73100
O486        O  0.08969790  0.52349748  0.26692621    -0.72900
O487        O  0.02330806  0.90964197  0.23311123    -0.72400
O488        O  0.02232501  0.52272065  0.31651137    -0.73100
O489        O  0.47595074  0.90947836  0.26687554    -0.72700
O490        O  0.08971409  0.97654725  0.23279420    -0.73300
O491        O  0.47661678  0.52256731  0.18334807    -0.72600
O492        O  0.02313825  0.59005072  0.26693063    -0.73400
O493        O  0.02227446  0.97679799  0.18332865    -0.72800
O494        O  0.47619952  0.59010533  0.23282927    -0.73300
O495        O  0.40920188  0.52353448  0.23302601    -0.73200
O496        O  0.40905747  0.97641907  0.26695061    -0.73000
C497        C  0.99944945  0.99984743  0.32995127     0.78800
C498        C  0.10769095  0.00013455  0.24978837     0.79300
C499        C  0.99979043  0.89157353  0.25006281     0.78300
C500        C  0.99945250  0.99967993  0.16988086     0.78700
C501        C  0.99981307  0.60806990  0.24981614     0.79800
C502        C  0.39113397  0.00010838  0.25006194     0.78800
N503        N  0.29111799  0.99676977  0.03307850    -0.34900
N504        N  0.29109121  0.00001691  0.46653321    -0.55500
N505        N  0.20760966  0.99767221  0.46681428    -0.34900
N506        N  0.20761392  0.99922149  0.03332734    -0.55500
C507        C  0.32872471  0.00488526  0.02743726     0.28700
C508        C  0.28448980  0.00448128  0.06265280     0.28700
C509        C  0.21424681  0.00583411  0.43733558     0.28700
C510        C  0.17005386  0.00579274  0.47257241     0.28700
C511        C  0.32914527  0.99377674  0.47158741     0.37300
C512        C  0.28503543  0.99378786  0.43672052     0.37300
C513        C  0.21358528  0.99276641  0.06309692     0.37300
C514        C  0.16951791  0.99329528  0.02821272     0.37300
C515        C  0.34625424  0.01766472  0.05380792    -0.20200
C516        C  0.31841486  0.01729158  0.07599738    -0.20200
C517        C  0.18041729  0.01909804  0.42418024    -0.20200
C518        C  0.15259603  0.01920512  0.44639718    -0.20200
C519        C  0.34731928  0.98366581  0.44480771    -0.21200
C520        C  0.31942687  0.98380759  0.42274676    -0.21200
C521        C  0.17910233  0.98287668  0.07699046    -0.21200
C522        C  0.15123576  0.98303605  0.05490630    -0.21200
C523        C  0.34820325  0.99921380  0.99959836    -0.16600
C524        C  0.24917979  0.99845357  0.07818876    -0.16600
C525        C  0.15052265  0.99936840  0.00027876    -0.16600
C526        C  0.24941261  0.99953348  0.42169211    -0.16600
H527        H  0.37610748  0.02626353  0.05684355     0.16300
H528        H  0.32272613  0.02542181  0.09933062     0.16300
H529        H  0.17614301  0.02760052  0.40094069     0.16300
H530        H  0.12277424  0.02792285  0.44349127     0.16300
H531        H  0.37759225  0.97705066  0.44141014     0.14600
H532        H  0.32400037  0.97751338  0.39910944     0.14600
H533        H  0.17444351  0.97653410  0.10060164     0.14600
H534        H  0.12088982  0.97666828  0.05825642     0.14600
H535        H  0.27236102  0.98283106  0.01833577     0.27900
H536        H  0.22625831  0.98325248  0.48131224     0.27900
N537        N  0.29115454  0.00302337  0.21677761    -0.34900
N538        N  0.20764732  0.00063942  0.21652930    -0.55500
N539        N  0.20764599  0.00222865  0.28304109    -0.34900
N540        N  0.29112283  0.99980321  0.28332532    -0.55500
C541        C  0.28449979  0.99530540  0.18720538     0.28700
C542        C  0.32873603  0.99486807  0.22242138     0.28700
C543        C  0.17006885  0.99413039  0.27728405     0.28700
C544        C  0.21426083  0.99407835  0.31252211     0.28700
C545        C  0.21363344  0.00709347  0.18676069     0.37300
C546        C  0.16956793  0.00659160  0.22164290     0.37300
C547        C  0.32919691  0.00599443  0.27826914     0.37300
C548        C  0.28508702  0.00604991  0.31313693     0.37300
C549        C  0.31838324  0.98244898  0.17386442    -0.20200
C550        C  0.34622337  0.98205573  0.19605402    -0.20200
C551        C  0.15257496  0.98074485  0.30346309    -0.20200
C552        C  0.18039521  0.98084735  0.32568098    -0.20200
C553        C  0.17917732  0.01701329  0.17286763    -0.21200
C554        C  0.15131149  0.01686852  0.19495079    -0.21200
C555        C  0.34740451  0.01609093  0.30504751    -0.21200
C556        C  0.31951174  0.01599091  0.32710895    -0.21200
C557        C  0.24920701  0.00136655  0.17166813    -0.16600
C558        C  0.34823652  0.00053343  0.25025771    -0.16600
C559        C  0.24944364  0.00035572  0.32816517    -0.16600
C560        C  0.15055740  0.00052038  0.24957339    -0.16600
H561        H  0.32266648  0.97430161  0.15053369     0.16300
H562        H  0.37604970  0.97342157  0.19302109     0.16300
H563        H  0.12273070  0.97204769  0.30637141     0.16300
H564        H  0.17609750  0.97236031  0.34892304     0.16300
H565        H  0.17453399  0.02336123  0.14925680     0.14600
H566        H  0.12098186  0.02325613  0.19160149     0.14600
H567        H  0.37769892  0.02266934  0.30844405     0.14600
H568        H  0.32410615  0.02228629  0.35074531     0.14600
H569        H  0.27244166  0.01699295  0.23151694     0.27900
H570        H  0.22633695  0.01662491  0.26853823     0.27900
C571        C  0.24905872  0.99987549  0.38864240    -0.11600
C572        C  0.24907614  0.00003348  0.36121491    -0.13100
C573        C  0.24931311  0.99944117  0.11122274    -0.11600
C574        C  0.24932629  0.00036859  0.13863442    -0.13100
C575        C  0.99946143  0.99987601  0.36154477    -0.11600
C576        C  0.99945312  0.99992836  0.38828247    -0.13100
C577        C  0.99950726  0.99974550  0.13828386    -0.11600
C578        C  0.99950105  0.99992521  0.11154453    -0.13100
C579        C  0.00088424  0.74989344  0.36121839    -0.11600
C580        C  0.00087158  0.74986357  0.38863518    -0.13100
C581        C  0.00188099  0.74982819  0.13863745    -0.11600
C582        C  0.00187095  0.74998143  0.11121869    -0.13100
N583        N  0.00307571  0.70825707  0.53305202    -0.34900
N584        N  0.00046270  0.79177689  0.53332322    -0.55500
N585        N  0.00257276  0.79164487  0.96678007    -0.34900
N586        N  0.50022758  0.70812183  0.96652863    -0.55500
C587        C  0.99565168  0.71491698  0.56266011     0.28700
C588        C  0.49488289  0.67064791  0.52743453     0.28700
C589        C  0.99438140  0.82922624  0.97243596     0.28700
C590        C  0.49487456  0.78493929  0.93721748     0.28700
C591        C  0.00704473  0.78588583  0.56309238     0.37300
C592        C  0.00607792  0.82992106  0.52822379     0.37300
C593        C  0.50609106  0.67002446  0.97160291     0.37300
C594        C  0.50658589  0.71405332  0.93673726     0.37300
C595        C  0.98290949  0.68102741  0.57605008    -0.20200
C596        C  0.48227552  0.65317291  0.55384963    -0.20200
C597        C  0.98147901  0.84663960  0.94609021    -0.20200
C598        C  0.48193249  0.81877074  0.92389359    -0.20200
C599        C  0.01661552  0.82047402  0.57700392    -0.21200
C600        C  0.01615125  0.84831876  0.55494016    -0.21200
C601        C  0.51611111  0.65169647  0.94485720    -0.21200
C602        C  0.51628572  0.67954064  0.92279244    -0.21200
C603        C  0.00190017  0.75022474  0.57817758    -0.16600
C604        C  0.50042090  0.65108831  0.49959907    -0.16600
C605        C  0.50111517  0.74966087  0.92167200    -0.16600
C606        C  0.00019207  0.84882581  0.50023174    -0.16600
H607        H  0.97496749  0.67675868  0.59941402     0.16300
H608        H  0.47367462  0.62333153  0.55691832     0.16300
H609        H  0.97280783  0.87645127  0.94306422     0.16300
H610        H  0.47376970  0.82299685  0.90057221     0.16300
H611        H  0.02296996  0.82521474  0.60061543     0.14600
H612        H  0.02232708  0.87870750  0.55830538     0.14600
H613        H  0.52243190  0.62135183  0.94147901     0.14600
H614        H  0.52252459  0.67484570  0.89915827     0.14600
H615        H  0.01695452  0.72698807  0.51829397     0.27900
H616        H  0.01664669  0.77298265  0.98145767     0.27900
N617        N  0.00306174  0.79153946  0.71681125    -0.35500
N618        N  0.00021640  0.79164278  0.78333531    -0.55500
N619        N  0.00267896  0.70812339  0.78306795    -0.34900
N620        N  0.00055787  0.70801487  0.71652308    -0.55500
C621        C  0.99482777  0.82912133  0.72243573     0.28700
C622        C  0.99563989  0.78486544  0.68720225     0.28700
C623        C  0.99496911  0.71479518  0.81263123     0.28700
C624        C  0.99452952  0.67051829  0.77740281     0.28700
C625        C  0.00602705  0.82976188  0.77826977     0.37300
C626        C  0.00657693  0.78572260  0.81312639     0.37300
C627        C  0.00713434  0.71393702  0.68675595     0.37300
C628        C  0.00622000  0.66988759  0.72161504     0.37300
C629        C  0.98219597  0.84656514  0.69602475    -0.20200
C630        C  0.98285471  0.81871881  0.67381963    -0.20200
C631        C  0.98206809  0.68091807  0.82594717    -0.20200
C632        C  0.98164611  0.65305611  0.80374453    -0.20200
C633        C  0.01601543  0.84811499  0.80502083    -0.21200
C634        C  0.01622362  0.82026390  0.82708006    -0.21200
C635        C  0.01675496  0.67938550  0.67283882    -0.21200
C636        C  0.01632251  0.65153166  0.69489685    -0.21200
C637        C  0.00035502  0.84869231  0.75027222    -0.16600
C638        C  0.00193144  0.74958347  0.67167713    -0.16600
C639        C  0.00034016  0.65095372  0.74959963    -0.16600
C640        C  0.00115214  0.75009176  0.82818365    -0.16600
H641        H  0.97356349  0.87638164  0.69296241     0.16300
H642        H  0.97490387  0.82297012  0.65045698     0.16300
H643        H  0.97390615  0.67665874  0.84926646     0.16300
H644        H  0.97300402  0.62321802  0.80676419     0.16300
H645        H  0.02229232  0.87847974  0.80840670     0.14600
H646        H  0.02244980  0.82497212  0.85071646     0.14600
H647        H  0.02311754  0.67467355  0.64922694     0.14600
H648        H  0.02253588  0.62116364  0.69152696     0.14600
H649        H  0.01696827  0.77284927  0.73156460     0.27900
H650        H  0.01672559  0.72683762  0.76839430     0.27900
Zn651      Zn  0.46593801  0.96644420  0.52378419     1.49700
Zn652      Zn  0.03284944  0.96651101  0.97597654     1.49400
Zn653      Zn  0.46588675  0.53344407  0.97605692     1.49100
Zn654      Zn  0.03294784  0.53342385  0.52381040     1.49500
O655        O  0.99938460  0.99997031  0.49990118    -1.82400
O656        O  0.47605128  0.90964569  0.51696441    -0.73100
O657        O  0.02226986  0.97708905  0.93331707    -0.72900
O658        O  0.40906311  0.52331468  0.98288968    -0.72400
O659        O  0.02301803  0.90974837  0.98289749    -0.73100
O660        O  0.40913386  0.97619498  0.51680858    -0.72700
O661        O  0.47655671  0.52280645  0.93334740    -0.73300
O662        O  0.02333900  0.59016507  0.51676100    -0.72600
O663        O  0.08963706  0.97635971  0.98290975    -0.73400
O664        O  0.47602322  0.59026990  0.98296864    -0.72800
O665        O  0.08970332  0.52332458  0.51704579    -0.73300
O666        O  0.02227067  0.52295129  0.56650952    -0.73200
O667        O  0.47657075  0.97713397  0.56646860    -0.73000
C668        C  0.99967480  0.89170928  0.49999876     0.78800
C669        C  0.99942476  0.99994837  0.91987700     0.79300
C670        C  0.39110368  0.99962435  0.49978005     0.78300
C671        C  0.99984665  0.60820700  0.49979900     0.78700
C672        C  0.10765843  0.99975513  0.50005273     0.79800
C673        C  0.99943488  0.00002821  0.57994657     0.78800
Zn674      Zn  0.46587542  0.96630662  0.77377432     1.49700
Zn675      Zn  0.03292085  0.53329763  0.77385145     1.49400
Zn676      Zn  0.03295378  0.96638171  0.72603293     1.49100
Zn677      Zn  0.46601710  0.53329483  0.72602767     1.49500
O678        O  0.99941773  0.99980907  0.74992783    -1.82400
O679        O  0.47655772  0.97696911  0.81648146    -0.73100
O680        O  0.08969982  0.52349546  0.76692690    -0.72900
O681        O  0.02330911  0.90964050  0.73311210    -0.72400
O682        O  0.02232469  0.52272303  0.81651197    -0.73100
O683        O  0.47595321  0.90947799  0.76687760    -0.72700
O684        O  0.08971456  0.97654553  0.73279447    -0.73300
O685        O  0.47661979  0.52256656  0.68334718    -0.72600
O686        O  0.02314001  0.59004998  0.76692849    -0.73400
O687        O  0.02227651  0.97679634  0.68332826    -0.72800
O688        O  0.47619890  0.59010393  0.73282887    -0.73300
O689        O  0.40920248  0.52353047  0.73302476    -0.73200
O690        O  0.40905963  0.97641675  0.76695078    -0.73000
C691        C  0.99944815  0.99985074  0.82995195     0.78800
C692        C  0.10769214  0.00013212  0.74978871     0.79300
C693        C  0.99979197  0.89157251  0.75006442     0.78300
C694        C  0.99945559  0.99967903  0.66988012     0.78700
C695        C  0.99981355  0.60806875  0.74981474     0.79800
C696        C  0.39113531  0.00010464  0.75006149     0.78800
N697        N  0.29112081  0.99677460  0.53307826    -0.34900
N698        N  0.29108914  0.00001165  0.96653349    -0.55500
N699        N  0.20760750  0.99764986  0.96681325    -0.34900
N700        N  0.20761652  0.99924372  0.53332812    -0.55500
C701        C  0.32872934  0.00488268  0.52743694     0.28700
C702        C  0.28449460  0.00448682  0.56265293     0.28700
C703        C  0.21424408  0.00581244  0.93733468     0.28700
C704        C  0.17005050  0.00576481  0.97257100     0.28700
C705        C  0.32914386  0.99377628  0.97158848     0.37300
C706        C  0.28503490  0.99377970  0.93672098     0.37300
C707        C  0.21358759  0.99278614  0.56309738     0.37300
C708        C  0.16951989  0.99332104  0.52821359     0.37300
C709        C  0.34626170  0.01765719  0.55380792    -0.20200
C710        C  0.31842252  0.01728908  0.57599760    -0.20200
C711        C  0.18041259  0.01907017  0.92417858    -0.20200
C712        C  0.15259099  0.01917353  0.94639516    -0.20200
C713        C  0.34731974  0.98366578  0.94480948    -0.21200
C714        C  0.31942789  0.98380281  0.92274813    -0.21200
C715        C  0.17910380  0.98289922  0.57699089    -0.21200
C716        C  0.15123706  0.98306211  0.55490695    -0.21200
C717        C  0.34820611  0.99921103  0.49959709    -0.16600
C718        C  0.24918327  0.99846660  0.57818891    -0.16600
C719        C  0.15052521  0.99939547  0.50027959    -0.16600
C720        C  0.24941159  0.99951894  0.92169186    -0.16600
H721        H  0.37611659  0.02625023  0.55684363     0.16300
H722        H  0.32273572  0.02541779  0.59933095     0.16300
H723        H  0.17613752  0.02757187  0.90093894     0.16300
H724        H  0.12276813  0.02788731  0.94348868     0.16300
H725        H  0.37759354  0.97705388  0.94141263     0.14600
H726        H  0.32400262  0.97750712  0.89911121     0.14600
H727        H  0.17444476  0.97655504  0.60060177     0.14600
H728        H  0.12089072  0.97669630  0.55825709     0.14600
H729        H  0.27236079  0.98284164  0.51833558     0.27900
H730        H  0.22625916  0.98323409  0.98131220     0.27900
N731        N  0.29115554  0.00302133  0.71677822    -0.34900
N732        N  0.20764856  0.00063858  0.71652920    -0.55500
N733        N  0.20764748  0.00222071  0.78304077    -0.34900
N734        N  0.29112425  0.99979488  0.78332538    -0.55500
C735        C  0.28450078  0.99530545  0.68720558     0.28700
C736        C  0.32873683  0.99486398  0.72242160     0.28700
C737        C  0.17007022  0.99412285  0.77728332     0.28700
C738        C  0.21426219  0.99406732  0.81252139     0.28700
C739        C  0.21363479  0.00709501  0.68676091     0.37300
C740        C  0.16956895  0.00658931  0.72164290     0.37300
C741        C  0.32919827  0.00598690  0.77826956     0.37300
C742        C  0.28508822  0.00603938  0.81313722     0.37300
C743        C  0.31838347  0.98244765  0.67386438    -0.20200
C744        C  0.34622348  0.98205176  0.69605401    -0.20200
C745        C  0.15257652  0.98073408  0.80346138    -0.20200
C746        C  0.18039676  0.98083438  0.82567931    -0.20200
C747        C  0.17917844  0.01701459  0.67286808    -0.21200
C748        C  0.15131237  0.01686723  0.69495106    -0.21200
C749        C  0.34740566  0.01608150  0.80504846    -0.21200
C750        C  0.31951277  0.01597960  0.82710982    -0.21200
C751        C  0.24920868  0.00137013  0.67166837    -0.16600
C752        C  0.34823776  0.00052836  0.75025780    -0.16600
C753        C  0.24944471  0.00034414  0.82816495    -0.16600
C754        C  0.15055862  0.00051647  0.74957328    -0.16600
H755        H  0.32266634  0.97430121  0.65053339     0.16300
H756        H  0.37604937  0.97341622  0.69302092     0.16300
H757        H  0.12273227  0.97203648  0.80636904     0.16300
H758        H  0.17609915  0.97234484  0.84892084     0.16300
H759        H  0.17453514  0.02336404  0.64925750     0.14600
H760        H  0.12098256  0.02325400  0.69160181     0.14600
H761        H  0.37769995  0.02266003  0.80844544     0.14600
H762        H  0.32410695  0.02227344  0.85074644     0.14600
H763        H  0.27244376  0.01699113  0.73151753     0.27900
H764        H  0.22633794  0.01661862  0.76853921     0.27900
C765        C  0.24905876  0.99986156  0.88864216    -0.11600
C766        C  0.24907667  0.00002043  0.86121467    -0.13100
C767        C  0.24931686  0.99945259  0.61122290    -0.11600
C768        C  0.24932907  0.00037696  0.63863461    -0.13100
C769        C  0.99945849  0.99988071  0.86154560    -0.11600
C770        C  0.99944907  0.99993147  0.88828338    -0.13100
C771        C  0.99951131  0.99974529  0.63828298    -0.11600
C772        C  0.99950448  0.99992682  0.61154359    -0.13100
C773        C  0.00088006  0.74988883  0.86121932    -0.11600
C774        C  0.00086764  0.74985727  0.88863622    -0.13100
C775        C  0.00188148  0.74982963  0.63863683    -0.11600
C776        C  0.00187120  0.74998482  0.61121796    -0.13100
N777        N  0.50308073  0.20825129  0.03305377    -0.34900
N778        N  0.50045632  0.29177127  0.03332409    -0.55500
N779        N  0.50258147  0.29165117  0.46677898    -0.34900
N780        N  0.00022475  0.20812841  0.46652683    -0.55500
C781        C  0.49565590  0.21491102  0.06266176     0.28700
C782        C  0.99489275  0.17064092  0.02743692     0.28700
C783        C  0.49439309  0.32923312  0.47243510     0.28700
C784        C  0.99488234  0.28494643  0.43721642     0.28700
C785        C  0.50704189  0.28588092  0.06309281     0.37300
C786        C  0.50606953  0.32991557  0.02822412     0.37300
C787        C  0.00608359  0.17003039  0.47160091     0.37300
C788        C  0.00658590  0.21405950  0.43673586     0.37300
C789        C  0.48291836  0.18102015  0.07605239    -0.20200
C790        C  0.98228806  0.15316494  0.05385241    -0.20200
C791        C  0.48149175  0.34664767  0.44608948    -0.20200
C792        C  0.98194265  0.31877888  0.42389277    -0.20200
C793        C  0.51661304  0.32046954  0.07700355    -0.21200
C794        C  0.51614543  0.34831394  0.05493965    -0.21200
C795        C  0.01610357  0.15170161  0.44485547    -0.21200
C796        C  0.01628277  0.17954603  0.42279102    -0.21200
C797        C  0.50190027  0.25021994  0.07817850    -0.16600
C798        C  0.00043155  0.15108178  0.99960135    -0.16600
C799        C  0.00111939  0.24966756  0.42167080    -0.16600
C800        C  0.50018018  0.34881962  0.00023233    -0.16600
H801        H  0.47497702  0.17675103  0.09941643     0.16300
H802        H  0.97369110  0.12332254  0.05692170     0.16300
H803        H  0.47282244  0.37645992  0.44306372     0.16300
H804        H  0.97377946  0.32300558  0.40057155     0.16300
H805        H  0.52297025  0.32521065  0.10061457     0.14600
H806        H  0.52232101  0.37870284  0.05830420     0.14600
H807        H  0.02242131  0.12135638  0.44147712     0.14600
H808        H  0.02252258  0.17485074  0.39915703     0.14600
H809        H  0.51695655  0.22698387  0.01829538     0.27900
H810        H  0.51665377  0.27298745  0.48145655     0.27900
N811        N  0.50306205  0.29154014  0.21681078    -0.35500
N812        N  0.50022141  0.29164468  0.28333417    -0.55500
N813        N  0.50268218  0.20812530  0.28306801    -0.34900
N814        N  0.50055833  0.20801545  0.21652388    -0.55500
C815        C  0.49482710  0.32912182  0.22243495     0.28700
C816        C  0.49563894  0.28486515  0.18720221     0.28700
C817        C  0.49497236  0.21479827  0.31263114     0.28700
C818        C  0.49453062  0.17052042  0.27740350     0.28700
C819        C  0.50603008  0.32976392  0.27826828     0.37300
C820        C  0.50658234  0.28572533  0.31312519     0.37300
C821        C  0.50713475  0.21393712  0.18675675     0.37300
C822        C  0.50622071  0.16988828  0.22161609     0.37300
C823        C  0.48219328  0.34656464  0.19602416    -0.20200
C824        C  0.48285187  0.31871774  0.17381944    -0.20200
C825        C  0.48206925  0.18092226  0.32594752    -0.20200
C826        C  0.48164588  0.15305971  0.30374533    -0.20200
C827        C  0.51601815  0.34811800  0.30501899    -0.21200
C828        C  0.51622795  0.32026727  0.32707846    -0.21200
C829        C  0.51675566  0.17938550  0.17283989    -0.21200
C830        C  0.51632337  0.15153200  0.19489811    -0.21200
C831        C  0.50035517  0.34869357  0.25027091    -0.16600
C832        C  0.50193110  0.24958307  0.17167757    -0.16600
C833        C  0.50034065  0.15095489  0.24960073    -0.16600
C834        C  0.50115681  0.25009507  0.32818291    -0.16600
H835        H  0.47355975  0.37638081  0.19296168     0.16300
H836        H  0.47489975  0.32296808  0.15045695     0.16300
H837        H  0.47390668  0.17666405  0.34926678     0.16300
H838        H  0.47300200  0.12322219  0.30676535     0.16300
H839        H  0.52229299  0.37848324  0.30840458     0.14600
H840        H  0.52245353  0.32497632  0.35071485     0.14600
H841        H  0.52311824  0.17467325  0.14922806     0.14600
H842        H  0.52253695  0.12116398  0.19152853     0.14600
H843        H  0.51697026  0.27285051  0.23156391     0.27900
H844        H  0.51672997  0.22683829  0.26839429     0.27900
Zn845      Zn  0.96593317  0.46644007  0.02378637     1.49700
Zn846      Zn  0.53285724  0.46651980  0.47597723     1.49400
Zn847      Zn  0.96588730  0.03344704  0.47605366     1.49100
Zn848      Zn  0.53295029  0.03341291  0.02381074     1.49500
O849        O  0.49938207  0.49996330  0.99990267    -1.82400
O850        O  0.97604373  0.40964049  0.01696749    -0.73100
O851        O  0.52227554  0.47709195  0.43331736    -0.72900
O852        O  0.90906450  0.02331213  0.48288567    -0.72400
O853        O  0.52303269  0.40975558  0.48290021    -0.73100
O854        O  0.90912957  0.47619480  0.01681033    -0.72700
O855        O  0.97656018  0.02280784  0.43334485    -0.73300
O856        O  0.52334888  0.09015629  0.01676099    -0.72600
O857        O  0.58964338  0.47637897  0.48290968    -0.73400
O858        O  0.97601730  0.09027451  0.48296498    -0.72800
O859        O  0.58970415  0.02330441  0.01704649    -0.73300
O860        O  0.52227145  0.02294286  0.06650990    -0.73200
O861        O  0.97656607  0.47713150  0.06647041    -0.73000
C862        C  0.49966303  0.39170302  0.99999883     0.78800
C863        C  0.49942948  0.49994898  0.41987596     0.79300
C864        C  0.89110088  0.49962658  0.99978282     0.78300
C865        C  0.49985593  0.10820034  0.99980070     0.78700
C866        C  0.60765603  0.49973259  0.00005316     0.79800
C867        C  0.49943281  0.50002384  0.07994761     0.78800
Zn868      Zn  0.96587369  0.46630684  0.27377360     1.49700
Zn869      Zn  0.53291915  0.03329792  0.27385155     1.49400
Zn870      Zn  0.53295306  0.46638306  0.22603280     1.49100
Zn871      Zn  0.96601605  0.03329635  0.22602851     1.49500
O872        O  0.49941655  0.49980961  0.24992792    -1.82400
O873        O  0.97655819  0.47696676  0.31648081    -0.73100
O874        O  0.58969769  0.02349742  0.26692627    -0.72900
O875        O  0.52330822  0.40964196  0.23311123    -0.72400
O876        O  0.52232477  0.02272060  0.31651147    -0.73100
O877        O  0.97595093  0.40947843  0.26687554    -0.72700
O878        O  0.58971420  0.47654721  0.23279422    -0.73300
O879        O  0.97661656  0.02256722  0.18334808    -0.72600
O880        O  0.52313825  0.09005067  0.26693069    -0.73400
O881        O  0.52227458  0.47679799  0.18332866    -0.72800
O882        O  0.97619940  0.09010526  0.23282928    -0.73300
O883        O  0.90920171  0.02353440  0.23302601    -0.73200
O884        O  0.90905768  0.47641903  0.26695058    -0.73000
C885        C  0.49944962  0.49984751  0.32995123     0.78800
C886        C  0.60769109  0.50013454  0.24978834     0.79300
C887        C  0.49979057  0.39157355  0.25006281     0.78300
C888        C  0.49945271  0.49968001  0.16988086     0.78700
C889        C  0.49981312  0.10806984  0.24981616     0.79800
C890        C  0.89113413  0.50010836  0.25006194     0.78800
N891        N  0.79111816  0.49676969  0.03307848    -0.34900
N892        N  0.79109137  0.50001675  0.46653322    -0.55500
N893        N  0.70760985  0.49767211  0.46681431    -0.34900
N894        N  0.70761409  0.49922141  0.03332733    -0.55500
C895        C  0.82872488  0.50488508  0.02743724     0.28700
C896        C  0.78448996  0.50448130  0.06265278     0.28700
C897        C  0.71424700  0.50583407  0.43733561     0.28700
C898        C  0.67005405  0.50579259  0.47257242     0.28700
C899        C  0.82914546  0.49377668  0.47158741     0.37300
C900        C  0.78503560  0.49378773  0.43672053     0.37300
C901        C  0.71358545  0.49276635  0.06309691     0.37300
C902        C  0.66951807  0.49329521  0.02821271     0.37300
C903        C  0.84625441  0.51766453  0.05380790    -0.20200
C904        C  0.81841504  0.51729153  0.07599739    -0.20200
C905        C  0.68041746  0.51909796  0.42418025    -0.20200
C906        C  0.65259619  0.51920496  0.44639718    -0.20200
C907        C  0.84731948  0.48366588  0.44480769    -0.21200
C908        C  0.81942706  0.48380753  0.42274675    -0.21200
C909        C  0.67910251  0.48287657  0.07699045    -0.21200
C910        C  0.65123594  0.48303594  0.05490629    -0.21200
C911        C  0.84820343  0.49921373  0.99959833    -0.16600
C912        C  0.74917995  0.49845362  0.07818875    -0.16600
C913        C  0.65052279  0.49936848  0.00027877    -0.16600
C914        C  0.74941278  0.49953340  0.42169212    -0.16600
H915        H  0.87610766  0.52626333  0.05684348     0.16300
H916        H  0.82272634  0.52542181  0.09933061     0.16300
H917        H  0.67614315  0.52760040  0.40094068     0.16300
H918        H  0.62277438  0.52792262  0.44349131     0.16300
H919        H  0.87759249  0.47705089  0.44141009     0.14600
H920        H  0.82400055  0.47751332  0.39910944     0.14600
H921        H  0.67444369  0.47653402  0.10060164     0.14600
H922        H  0.62088999  0.47666822  0.05825641     0.14600
H923        H  0.77236116  0.48283097  0.01833576     0.27900
H924        H  0.72625851  0.48325236  0.48131226     0.27900
N925        N  0.79115471  0.50302323  0.21677762    -0.34900
N926        N  0.70764751  0.50063953  0.21652929    -0.55500
N927        N  0.70764609  0.50222869  0.28304109    -0.34900
N928        N  0.79112298  0.49980323  0.28332532    -0.55500
C929        C  0.78449997  0.49530532  0.18720539     0.28700
C930        C  0.82873621  0.49486800  0.22242138     0.28700
C931        C  0.67006899  0.49413034  0.27728401     0.28700
C932        C  0.71426093  0.49407847  0.31252210     0.28700
C933        C  0.71363364  0.50709353  0.18676067     0.37300
C934        C  0.66956808  0.50659158  0.22164285     0.37300
C935        C  0.82919709  0.50599434  0.27826915     0.37300
C936        C  0.78508717  0.50604986  0.31313694     0.37300
C937        C  0.81838342  0.48244892  0.17386442    -0.20200
C938        C  0.84622359  0.48205576  0.19605399    -0.20200
C939        C  0.65257507  0.48074480  0.30346306    -0.20200
C940        C  0.68039528  0.48084745  0.32568098    -0.20200
C941        C  0.67917749  0.51701321  0.17286757    -0.21200
C942        C  0.65131164  0.51686839  0.19495072    -0.21200
C943        C  0.84740470  0.51609081  0.30504752    -0.21200
C944        C  0.81951190  0.51599086  0.32710895    -0.21200
C945        C  0.74920721  0.50136655  0.17166813    -0.16600
C946        C  0.84823669  0.50053334  0.25025772    -0.16600
C947        C  0.74944375  0.50035570  0.32816517    -0.16600
C948        C  0.65055755  0.50052031  0.24957334    -0.16600
H949        H  0.82266665  0.47430154  0.15053369     0.16300
H950        H  0.87604994  0.47342169  0.19302105     0.16300
H951        H  0.62273084  0.47204751  0.30637135     0.16300
H952        H  0.67609760  0.47236038  0.34892303     0.16300
H953        H  0.67453417  0.52336109  0.14925672     0.14600
H954        H  0.62098200  0.52325591  0.19160138     0.14600
H955        H  0.87769912  0.52266919  0.30844407     0.14600
H956        H  0.82410630  0.52228631  0.35074530     0.14600
H957        H  0.77244182  0.51699278  0.23151697     0.27900
H958        H  0.72633714  0.51662497  0.26853813     0.27900
C959        C  0.74905883  0.49987545  0.38864240    -0.11600
C960        C  0.74907621  0.50003348  0.36121491    -0.13100
C961        C  0.74931330  0.49944110  0.11122273    -0.11600
C962        C  0.74932647  0.50036847  0.13863441    -0.13100
C963        C  0.49946171  0.49987619  0.36154474    -0.11600
C964        C  0.49945341  0.49992850  0.38828245    -0.13100
C965        C  0.49950753  0.49974562  0.13828386    -0.11600
C966        C  0.49950123  0.49992524  0.11154453    -0.13100
C967        C  0.50088420  0.24989346  0.36121840    -0.11600
C968        C  0.50087170  0.24986358  0.38863520    -0.13100
C969        C  0.50188092  0.24982815  0.13863746    -0.11600
C970        C  0.50187090  0.24998147  0.11121870    -0.13100
N971        N  0.50307564  0.20825708  0.53305202    -0.34900
N972        N  0.50046280  0.29177693  0.53332327    -0.55500
N973        N  0.50257273  0.29164484  0.96678007    -0.34900
N974        N  0.00022751  0.20812187  0.96652862    -0.55500
C975        C  0.49565164  0.21491700  0.56266013     0.28700
C976        C  0.99488276  0.17064793  0.52743452     0.28700
C977        C  0.49438144  0.32922622  0.97243597     0.28700
C978        C  0.99487471  0.28493935  0.93721745     0.28700
C979        C  0.50704476  0.28588590  0.56309245     0.37300
C980        C  0.50607803  0.32992109  0.52822383     0.37300
C981        C  0.00609097  0.17002451  0.97160290     0.37300
C982        C  0.00658595  0.21405338  0.93673727     0.37300
C983        C  0.48290937  0.18102747  0.57605008    -0.20200
C984        C  0.98227541  0.15317298  0.55384963    -0.20200
C985        C  0.48147911  0.34663967  0.94609023    -0.20200
C986        C  0.98193260  0.31877082  0.92389358    -0.20200
C987        C  0.51661558  0.32047411  0.57700400    -0.21200
C988        C  0.51615126  0.34831884  0.55494021    -0.21200
C989        C  0.01611103  0.15169652  0.94485718    -0.21200
C990        C  0.01628579  0.17954072  0.92279245    -0.21200
C991        C  0.50190017  0.25022477  0.57817761    -0.16600
C992        C  0.00042077  0.15108828  0.49959907    -0.16600
C993        C  0.00111524  0.24966091  0.92167198    -0.16600
C994        C  0.50019219  0.34882579  0.50023176    -0.16600
H995        H  0.47496728  0.17675874  0.59941401     0.16300
H996        H  0.97367449  0.12333162  0.55691833     0.16300
H997        H  0.47280796  0.37645135  0.94306428     0.16300
H998        H  0.97376982  0.32299696  0.90057220     0.16300
H999        H  0.52297007  0.32521485  0.60061550     0.14600
H1000       H  0.52232697  0.37870761  0.55830540     0.14600
H1001       H  0.02243167  0.12135187  0.94147895     0.14600
H1002       H  0.02252472  0.17484582  0.89915828     0.14600
H1003       H  0.51695443  0.22698806  0.51829398     0.27900
H1004       H  0.51664656  0.27298260  0.98145768     0.27900
N1005       N  0.50306165  0.29153942  0.71681126    -0.35500
N1006       N  0.50021661  0.29164273  0.78333532    -0.55500
N1007       N  0.50267894  0.20812337  0.78306793    -0.34900
N1008       N  0.50055791  0.20801488  0.71652310    -0.55500
C1009       C  0.49482784  0.32912129  0.72243574     0.28700
C1010       C  0.49563985  0.28486539  0.68720228     0.28700
C1011       C  0.49496914  0.21479510  0.81263126     0.28700
C1012       C  0.49452935  0.17051822  0.77740281     0.28700
C1013       C  0.50602716  0.32976184  0.77826978     0.37300
C1014       C  0.50657701  0.28572257  0.81312642     0.37300
C1015       C  0.50713435  0.21393704  0.68675597     0.37300
C1016       C  0.50621994  0.16988756  0.72161503     0.37300
C1017       C  0.48219607  0.34656516  0.69602474    -0.20200
C1018       C  0.48285475  0.31871879  0.67381963    -0.20200
C1019       C  0.48206811  0.18091800  0.82594720    -0.20200
C1020       C  0.48164594  0.15305605  0.80374452    -0.20200
C1021       C  0.51601539  0.34811500  0.80502085    -0.21200
C1022       C  0.51622357  0.32026393  0.82708009    -0.21200
C1023       C  0.51675491  0.17938552  0.67283881    -0.21200
C1024       C  0.51632242  0.15153164  0.69489682    -0.21200
C1025       C  0.50035514  0.34869227  0.75027222    -0.16600
C1026       C  0.50193150  0.24958347  0.67167714    -0.16600
C1027       C  0.50034002  0.15095369  0.74959962    -0.16600
C1028       C  0.50115215  0.25009172  0.82818366    -0.16600
H1029       H  0.47356367  0.37638168  0.69296239     0.16300
H1030       H  0.47490403  0.32297006  0.65045695     0.16300
H1031       H  0.47390620  0.17665871  0.84926649     0.16300
H1032       H  0.47300374  0.12321797  0.80676416     0.16300
H1033       H  0.52229224  0.37847977  0.80840670     0.14600
H1034       H  0.52244970  0.32497220  0.85071650     0.14600
H1035       H  0.52311751  0.17467369  0.64922692     0.14600
H1036       H  0.52253577  0.12116361  0.69152691     0.14600
H1037       H  0.51696824  0.27284912  0.73156469     0.27900
H1038       H  0.51672545  0.22683744  0.76839438     0.27900
Zn1039     Zn  0.96593820  0.46644416  0.52378420     1.49700
Zn1040     Zn  0.53284963  0.46651090  0.97597654     1.49400
Zn1041     Zn  0.96588661  0.03344418  0.97605693     1.49100
Zn1042     Zn  0.53294767  0.03342393  0.52381041     1.49500
O1043       O  0.49938480  0.49997024  0.49990117    -1.82400
O1044       O  0.97605143  0.40964566  0.51696444    -0.73100
O1045       O  0.52227003  0.47708895  0.93331706    -0.72900
O1046       O  0.90906301  0.02331475  0.98288979    -0.72400
O1047       O  0.52301819  0.40974826  0.98289750    -0.73100
O1048       O  0.90913407  0.47619505  0.51680860    -0.72700
O1049       O  0.97655661  0.02280661  0.93334740    -0.73300
O1050       O  0.52333888  0.09016506  0.51676099    -0.72600
O1051       O  0.58963725  0.47635964  0.98290978    -0.73400
O1052       O  0.97602311  0.09026994  0.98296865    -0.72800
O1053       O  0.58970314  0.02332454  0.51704584    -0.73300
O1054       O  0.52227027  0.02295134  0.56650952    -0.73200
O1055       O  0.97657102  0.47713405  0.56646860    -0.73000
C1056       C  0.49967493  0.39170924  0.49999877     0.78800
C1057       C  0.49942489  0.49994824  0.91987700     0.79300
C1058       C  0.89110386  0.49962439  0.49978006     0.78300
C1059       C  0.49984648  0.10820696  0.49979901     0.78700
C1060       C  0.60765861  0.49975513  0.50005273     0.79800
C1061       C  0.49943508  0.50002827  0.57994656     0.78800
Zn1062     Zn  0.96587560  0.46630657  0.77377442     1.49700
Zn1063     Zn  0.53292058  0.03329758  0.77385146     1.49400
Zn1064     Zn  0.53295391  0.46638178  0.72603292     1.49100
Zn1065     Zn  0.96601695  0.03329477  0.72602767     1.49500
O1066       O  0.49941783  0.49980906  0.74992787    -1.82400
O1067       O  0.97655787  0.47696922  0.81648154    -0.73100
O1068       O  0.58969962  0.02349534  0.76692690    -0.72900
O1069       O  0.52330913  0.40964050  0.73311209    -0.72400
O1070       O  0.52232428  0.02272315  0.81651200    -0.73100
O1071       O  0.97595335  0.40947793  0.76687760    -0.72700
O1072       O  0.58971473  0.47654567  0.73279446    -0.73300
O1073       O  0.97661962  0.02256652  0.68334716    -0.72600
O1074       O  0.52313985  0.09004992  0.76692847    -0.73400
O1075       O  0.52227662  0.47679632  0.68332824    -0.72800
O1076       O  0.97619877  0.09010385  0.73282885    -0.73300
O1077       O  0.90920230  0.02353049  0.73302482    -0.73200
O1078       O  0.90905984  0.47641679  0.76695074    -0.73000
C1079       C  0.49944834  0.49985083  0.82995197     0.78800
C1080       C  0.60769232  0.50013224  0.74978871     0.79300
C1081       C  0.49979204  0.39157247  0.75006443     0.78300
C1082       C  0.49945571  0.49967904  0.66988012     0.78700
C1083       C  0.49981340  0.10806870  0.74981473     0.79800
C1084       C  0.89113546  0.50010463  0.75006145     0.78800
N1085       N  0.79112100  0.49677452  0.53307826    -0.34900
N1086       N  0.79108929  0.50001153  0.96653350    -0.55500
N1087       N  0.70760764  0.49764985  0.96681325    -0.34900
N1088       N  0.70761669  0.49924367  0.53332811    -0.55500
C1089       C  0.82872951  0.50488270  0.52743692     0.28700
C1090       C  0.78449481  0.50448666  0.56265293     0.28700
C1091       C  0.71424426  0.50581246  0.93733469     0.28700
C1092       C  0.67005067  0.50576488  0.97257101     0.28700
C1093       C  0.82914403  0.49377627  0.97158846     0.37300
C1094       C  0.78503507  0.49377963  0.93672098     0.37300
C1095       C  0.71358774  0.49278622  0.56309739     0.37300
C1096       C  0.66952008  0.49332094  0.52821358     0.37300
C1097       C  0.84626185  0.51765724  0.55380791    -0.20200
C1098       C  0.81842272  0.51728895  0.57599761    -0.20200
C1099       C  0.68041280  0.51907027  0.92417859    -0.20200
C1100       C  0.65259118  0.51917362  0.94639517    -0.20200
C1101       C  0.84731991  0.48366582  0.94480946    -0.21200
C1102       C  0.81942808  0.48380288  0.92274811    -0.21200
C1103       C  0.67910396  0.48289933  0.57699091    -0.21200
C1104       C  0.65123724  0.48306206  0.55490696    -0.21200
C1105       C  0.84820629  0.49921101  0.49959709    -0.16600
C1106       C  0.74918346  0.49846652  0.57818891    -0.16600
C1107       C  0.65052539  0.49939539  0.50027960    -0.16600
C1108       C  0.74941175  0.49951887  0.92169186    -0.16600
H1109       H  0.87611672  0.52625035  0.55684362     0.16300
H1110       H  0.82273591  0.52541760  0.59933098     0.16300
H1111       H  0.67613772  0.52757194  0.90093895     0.16300
H1112       H  0.62276833  0.52788736  0.94348867     0.16300
H1113       H  0.87759371  0.47705389  0.94141261     0.14600
H1114       H  0.82400285  0.47750734  0.89911117     0.14600
H1115       H  0.67444493  0.47655515  0.60060180     0.14600
H1116       H  0.62089092  0.47669616  0.55825708     0.14600
H1117       H  0.77236100  0.48284152  0.51833558     0.27900
H1118       H  0.72625927  0.48323396  0.98131217     0.27900
N1119       N  0.79115576  0.50302132  0.71677820    -0.34900
N1120       N  0.70764874  0.50063852  0.71652920    -0.55500
N1121       N  0.70764764  0.50222073  0.78304078    -0.34900
N1122       N  0.79112440  0.49979496  0.78332537    -0.55500
C1123       C  0.78450099  0.49530538  0.68720557     0.28700
C1124       C  0.82873701  0.49486391  0.72242161     0.28700
C1125       C  0.67007040  0.49412283  0.77728332     0.28700
C1126       C  0.71426238  0.49406726  0.81252139     0.28700
C1127       C  0.71363498  0.50709494  0.68676092     0.37300
C1128       C  0.66956913  0.50658930  0.72164290     0.37300
C1129       C  0.82919846  0.50598680  0.77826957     0.37300
C1130       C  0.78508838  0.50603947  0.81313721     0.37300
C1131       C  0.81838366  0.48244758  0.67386438    -0.20200
C1132       C  0.84622365  0.48205169  0.69605403    -0.20200
C1133       C  0.65257671  0.48073399  0.80346136    -0.20200
C1134       C  0.68039695  0.48083426  0.82567930    -0.20200
C1135       C  0.67917862  0.51701446  0.67286807    -0.21200
C1136       C  0.65131254  0.51686714  0.69495105    -0.21200
C1137       C  0.84740587  0.51608139  0.80504847    -0.21200
C1138       C  0.81951295  0.51597965  0.82710981    -0.21200
C1139       C  0.74920888  0.50137007  0.67166838    -0.16600
C1140       C  0.84823793  0.50052824  0.75025780    -0.16600
C1141       C  0.74944490  0.50034410  0.82816495    -0.16600
C1142       C  0.65055880  0.50051654  0.74957329    -0.16600
H1143       H  0.82266659  0.47430114  0.65053341     0.16300
H1144       H  0.87604954  0.47341617  0.69302092     0.16300
H1145       H  0.62273246  0.47203638  0.80636901     0.16300
H1146       H  0.67609934  0.47234470  0.84892082     0.16300
H1147       H  0.67453532  0.52336384  0.64925747     0.14600
H1148       H  0.62098272  0.52325388  0.69160180     0.14600
H1149       H  0.87770017  0.52265987  0.80844544     0.14600
H1150       H  0.82410712  0.52227356  0.85074643     0.14600
H1151       H  0.77244399  0.51699119  0.73151748     0.27900
H1152       H  0.72633807  0.51661874  0.76853924     0.27900
C1153       C  0.74905893  0.49986152  0.88864216    -0.11600
C1154       C  0.74907684  0.50002043  0.86121467    -0.13100
C1155       C  0.74931705  0.49945254  0.61122290    -0.11600
C1156       C  0.74932926  0.50037695  0.63863461    -0.13100
C1157       C  0.49945875  0.49988077  0.86154560    -0.11600
C1158       C  0.49944924  0.49993140  0.88828339    -0.13100
C1159       C  0.49951142  0.49974539  0.63828298    -0.11600
C1160       C  0.49950459  0.49992699  0.61154359    -0.13100
C1161       C  0.50087996  0.24988878  0.86121932    -0.11600
C1162       C  0.50086757  0.24985727  0.88863622    -0.13100
C1163       C  0.50188165  0.24982960  0.63863685    -0.11600
C1164       C  0.50187132  0.24998479  0.61121798    -0.13100
N1165       N  0.50308079  0.70825124  0.03305381    -0.34900
N1166       N  0.50045640  0.79177134  0.03332408    -0.55500
N1167       N  0.50258133  0.79165119  0.46677896    -0.34900
N1168       N  0.00022476  0.70812848  0.46652681    -0.55500
C1169       C  0.49565584  0.71491102  0.06266174     0.28700
C1170       C  0.99489285  0.67064091  0.02743688     0.28700
C1171       C  0.49439295  0.82923316  0.47243507     0.28700
C1172       C  0.99488227  0.78494647  0.43721640     0.28700
C1173       C  0.50704180  0.78588097  0.06309282     0.37300
C1174       C  0.50606963  0.82991564  0.02822410     0.37300
C1175       C  0.00608355  0.67003043  0.47160087     0.37300
C1176       C  0.00658589  0.71405956  0.43673584     0.37300
C1177       C  0.48291831  0.68102010  0.07605236    -0.20200
C1178       C  0.98228808  0.65316490  0.05385237    -0.20200
C1179       C  0.48149162  0.84664769  0.44608946    -0.20200
C1180       C  0.98194251  0.81877893  0.42389277    -0.20200
C1181       C  0.51661293  0.82046959  0.07700357    -0.21200
C1182       C  0.51614549  0.84831397  0.05493965    -0.21200
C1183       C  0.01610353  0.65170163  0.44485542    -0.21200
C1184       C  0.01628282  0.67954608  0.42279101    -0.21200
C1185       C  0.50190013  0.75021996  0.07817850    -0.16600
C1186       C  0.00043168  0.65108174  0.99960133    -0.16600
C1187       C  0.00111928  0.74966759  0.42167078    -0.16600
C1188       C  0.50018016  0.84881970  0.00023232    -0.16600
H1189       H  0.47497694  0.67675094  0.09941639     0.16300
H1190       H  0.97369107  0.62332250  0.05692160     0.16300
H1191       H  0.47282236  0.87645995  0.44306370     0.16300
H1192       H  0.97377924  0.82300564  0.40057157     0.16300
H1193       H  0.52297003  0.82521075  0.10061460     0.14600
H1194       H  0.52232106  0.87870287  0.05830422     0.14600
H1195       H  0.02242130  0.62135640  0.44147709     0.14600
H1196       H  0.02252276  0.67485085  0.39915703     0.14600
H1197       H  0.51695674  0.72698394  0.01829534     0.27900
H1198       H  0.51665363  0.77298757  0.48145651     0.27900
N1199       N  0.50306187  0.79154015  0.21681076    -0.35500
N1200       N  0.50022133  0.79164466  0.28333417    -0.55500
N1201       N  0.50268223  0.70812532  0.28306804    -0.34900
N1202       N  0.50055829  0.70801551  0.21652386    -0.55500
C1203       C  0.49482698  0.82912177  0.22243497     0.28700
C1204       C  0.49563878  0.78486516  0.18720222     0.28700
C1205       C  0.49497242  0.71479832  0.31263111     0.28700
C1206       C  0.49453072  0.67052049  0.27740349     0.28700
C1207       C  0.50602993  0.82976391  0.27826830     0.37300
C1208       C  0.50658239  0.78572531  0.31312517     0.37300
C1209       C  0.50713480  0.71393721  0.18675674     0.37300
C1210       C  0.50622068  0.66988833  0.22161606     0.37300
C1211       C  0.48219317  0.84656461  0.19602418    -0.20200
C1212       C  0.48285173  0.81871775  0.17381945    -0.20200
C1213       C  0.48206930  0.68092229  0.32594751    -0.20200
C1214       C  0.48164598  0.65305973  0.30374533    -0.20200
C1215       C  0.51601799  0.84811799  0.30501902    -0.21200
C1216       C  0.51622790  0.82026724  0.32707846    -0.21200
C1217       C  0.51675575  0.67938558  0.17283988    -0.21200
C1218       C  0.51632336  0.65153204  0.19489808    -0.21200
C1219       C  0.50035507  0.84869355  0.25027091    -0.16600
C1220       C  0.50193101  0.74958312  0.17167755    -0.16600
C1221       C  0.50034067  0.65095495  0.24960072    -0.16600
C1222       C  0.50115686  0.75009507  0.32818290    -0.16600
H1223       H  0.47355966  0.87638079  0.19296172     0.16300
H1224       H  0.47489964  0.82296812  0.15045696     0.16300
H1225       H  0.47390671  0.67666412  0.34926677     0.16300
H1226       H  0.47300205  0.62322223  0.30676533     0.16300
H1227       H  0.52229279  0.87848322  0.30840464     0.14600
H1228       H  0.52245346  0.82497626  0.35071486     0.14600
H1229       H  0.52311833  0.67467338  0.14922805     0.14600
H1230       H  0.52253687  0.62116400  0.19152845     0.14600
H1231       H  0.51697022  0.77285041  0.23156398     0.27900
H1232       H  0.51673019  0.72683850  0.26839419     0.27900
Zn1233     Zn  0.96593302  0.96644014  0.02378637     1.49700
Zn1234     Zn  0.53285705  0.96651989  0.47597723     1.49400
Zn1235     Zn  0.96588746  0.53344707  0.47605368     1.49100
Zn1236     Zn  0.53295048  0.53341294  0.02381074     1.49500
O1237       O  0.49938183  0.99996339  0.99990266    -1.82400
O1238       O  0.97604359  0.90964058  0.01696748    -0.73100
O1239       O  0.52227530  0.97709204  0.43331740    -0.72900
O1240       O  0.90906465  0.52331219  0.48288568    -0.72400
O1241       O  0.52303255  0.90975565  0.48290020    -0.73100
O1242       O  0.90912940  0.97619482  0.01681042    -0.72700
O1243       O  0.97656031  0.52280780  0.43334487    -0.73300
O1244       O  0.52334915  0.59015625  0.01676093    -0.72600
O1245       O  0.58964316  0.97637902  0.48290964    -0.73400
O1246       O  0.97601745  0.59027457  0.48296497    -0.72800
O1247       O  0.58970429  0.52330444  0.01704646    -0.73300
O1248       O  0.52227161  0.52294295  0.06650992    -0.73200
O1249       O  0.97656594  0.97713139  0.06647043    -0.73000
C1250       C  0.49966291  0.89170312  0.99999882     0.78800
C1251       C  0.49942918  0.99994896  0.41987596     0.79300
C1252       C  0.89110074  0.99962662  0.99978291     0.78300
C1253       C  0.49985614  0.60820029  0.99980070     0.78700
C1254       C  0.60765587  0.99973258  0.00005316     0.79800
C1255       C  0.49943267  0.00002376  0.07994762     0.78800
Zn1256     Zn  0.96587353  0.96630684  0.27377359     1.49700
Zn1257     Zn  0.53291932  0.53329799  0.27385151     1.49400
Zn1258     Zn  0.53295277  0.96638310  0.22603279     1.49100
Zn1259     Zn  0.96601617  0.53329644  0.22602851     1.49500
O1260       O  0.49941635  0.99980958  0.24992793    -1.82400
O1261       O  0.97655800  0.97696677  0.31648078    -0.73100
O1262       O  0.58969789  0.52349747  0.26692620    -0.72900
O1263       O  0.52330804  0.90964197  0.23311123    -0.72400
O1264       O  0.52232502  0.52272063  0.31651137    -0.73100
O1265       O  0.97595077  0.90947837  0.26687555    -0.72700
O1266       O  0.58971393  0.97654728  0.23279421    -0.73300
O1267       O  0.97661679  0.52256726  0.18334808    -0.72600
O1268       O  0.52313830  0.59005072  0.26693067    -0.73400
O1269       O  0.52227445  0.97679798  0.18332867    -0.72800
O1270       O  0.97619937  0.59010534  0.23282931    -0.73300
O1271       O  0.90920184  0.52353445  0.23302605    -0.73200
O1272       O  0.90905750  0.97641907  0.26695061    -0.73000
C1273       C  0.49944936  0.99984743  0.32995127     0.78800
C1274       C  0.60769087  0.00013454  0.24978837     0.79300
C1275       C  0.49979042  0.89157353  0.25006281     0.78300
C1276       C  0.49945254  0.99967993  0.16988086     0.78700
C1277       C  0.49981315  0.60806990  0.24981614     0.79800
C1278       C  0.89113397  0.00010838  0.25006194     0.78800
N1279       N  0.79111798  0.99676976  0.03307849    -0.34900
N1280       N  0.79109116  0.00001689  0.46653321    -0.55500
N1281       N  0.70760967  0.99767220  0.46681429    -0.34900
N1282       N  0.70761393  0.99922150  0.03332733    -0.55500
C1283       C  0.82872473  0.00488526  0.02743728     0.28700
C1284       C  0.78448981  0.00448128  0.06265283     0.28700
C1285       C  0.71424682  0.00583411  0.43733558     0.28700
C1286       C  0.67005387  0.00579273  0.47257240     0.28700
C1287       C  0.82914522  0.99377674  0.47158742     0.37300
C1288       C  0.78503541  0.99378786  0.43672052     0.37300
C1289       C  0.71358529  0.99276640  0.06309692     0.37300
C1290       C  0.66951793  0.99329523  0.02821271     0.37300
C1291       C  0.84625422  0.01766471  0.05380792    -0.20200
C1292       C  0.81841485  0.01729157  0.07599740    -0.20200
C1293       C  0.68041732  0.01909804  0.42418024    -0.20200
C1294       C  0.65259605  0.01920513  0.44639717    -0.20200
C1295       C  0.84731922  0.98366582  0.44480773    -0.21200
C1296       C  0.81942686  0.98380760  0.42274677    -0.21200
C1297       C  0.67910236  0.98287659  0.07699045    -0.21200
C1298       C  0.65123581  0.98303589  0.05490628    -0.21200
C1299       C  0.84820328  0.99921380  0.99959838    -0.16600
C1300       C  0.74917978  0.99845358  0.07818877    -0.16600
C1301       C  0.65052263  0.99936844  0.00027877    -0.16600
C1302       C  0.74941261  0.99953348  0.42169210    -0.16600
H1303       H  0.87610746  0.02626354  0.05684355     0.16300
H1304       H  0.82272615  0.02542182  0.09933063     0.16300
H1305       H  0.67614304  0.02760052  0.40094069     0.16300
H1306       H  0.62277426  0.02792285  0.44349126     0.16300
H1307       H  0.87759219  0.97705069  0.44141018     0.14600
H1308       H  0.82400043  0.97751338  0.39910947     0.14600
H1309       H  0.67444354  0.97653401  0.10060163     0.14600
H1310       H  0.62088989  0.97666803  0.05825638     0.14600
H1311       H  0.77236113  0.98283116  0.01833583     0.27900
H1312       H  0.72625830  0.98325244  0.48131224     0.27900
N1313       N  0.79115451  0.00302320  0.21677764    -0.34900
N1314       N  0.70764732  0.00063942  0.21652932    -0.55500
N1315       N  0.70764596  0.00222865  0.28304109    -0.34900
N1316       N  0.79112284  0.99980321  0.28332533    -0.55500
C1317       C  0.78449978  0.99530533  0.18720541     0.28700
C1318       C  0.82873603  0.99486807  0.22242139     0.28700
C1319       C  0.67006881  0.99413038  0.27728405     0.28700
C1320       C  0.71426081  0.99407836  0.31252210     0.28700
C1321       C  0.71363346  0.00709347  0.18676071     0.37300
C1322       C  0.66956790  0.00659160  0.22164289     0.37300
C1323       C  0.82919693  0.00599443  0.27826915     0.37300
C1324       C  0.78508702  0.00604990  0.31313694     0.37300
C1325       C  0.81838326  0.98244904  0.17386443    -0.20200
C1326       C  0.84622342  0.98205588  0.19605400    -0.20200
C1327       C  0.65257491  0.98074484  0.30346308    -0.20200
C1328       C  0.68039516  0.98084735  0.32568097    -0.20200
C1329       C  0.67917733  0.01701329  0.17286764    -0.21200
C1330       C  0.65131147  0.01686852  0.19495078    -0.21200
C1331       C  0.84740453  0.01609093  0.30504752    -0.21200
C1332       C  0.81951175  0.01599090  0.32710896    -0.21200
C1333       C  0.74920702  0.00136653  0.17166815    -0.16600
C1334       C  0.84823652  0.00053343  0.25025772    -0.16600
C1335       C  0.74944361  0.00035572  0.32816517    -0.16600
C1336       C  0.65055736  0.00052034  0.24957337    -0.16600
H1337       H  0.82266650  0.97430167  0.15053369     0.16300
H1338       H  0.87604978  0.97342185  0.19302106     0.16300
H1339       H  0.62273065  0.97204768  0.30637140     0.16300
H1340       H  0.67609745  0.97236029  0.34892303     0.16300
H1341       H  0.67453405  0.02336122  0.14925680     0.14600
H1342       H  0.62098184  0.02325612  0.19160147     0.14600
H1343       H  0.87769894  0.02266934  0.30844406     0.14600
H1344       H  0.82410616  0.02228628  0.35074532     0.14600
H1345       H  0.77244157  0.01699271  0.23151705     0.27900
H1346       H  0.72633694  0.01662492  0.26853820     0.27900
C1347       C  0.74905869  0.99987549  0.38864239    -0.11600
C1348       C  0.74907607  0.00003349  0.36121490    -0.13100
C1349       C  0.74931305  0.99944119  0.11122275    -0.11600
C1350       C  0.74932627  0.00036859  0.13863444    -0.13100
C1351       C  0.49946138  0.99987600  0.36154477    -0.11600
C1352       C  0.49945309  0.99992835  0.38828248    -0.13100
C1353       C  0.49950737  0.99974552  0.13828385    -0.11600
C1354       C  0.49950108  0.99992521  0.11154453    -0.13100
C1355       C  0.50088411  0.74989345  0.36121839    -0.11600
C1356       C  0.50087154  0.74986354  0.38863518    -0.13100
C1357       C  0.50188078  0.74982818  0.13863745    -0.11600
C1358       C  0.50187075  0.74998145  0.11121869    -0.13100
N1359       N  0.50307572  0.70825707  0.53305203    -0.34900
N1360       N  0.50046273  0.79177689  0.53332322    -0.55500
N1361       N  0.50257268  0.79164482  0.96678010    -0.34900
N1362       N  0.00022760  0.70812184  0.96652861    -0.55500
C1363       C  0.49565168  0.71491698  0.56266011     0.28700
C1364       C  0.99488290  0.67064791  0.52743453     0.28700
C1365       C  0.49438149  0.82922627  0.97243595     0.28700
C1366       C  0.99487463  0.78493930  0.93721747     0.28700
C1367       C  0.50704477  0.78588583  0.56309238     0.37300
C1368       C  0.50607795  0.82992106  0.52822379     0.37300
C1369       C  0.00609101  0.67002446  0.97160287     0.37300
C1370       C  0.00658598  0.71405334  0.93673725     0.37300
C1371       C  0.48290946  0.68102742  0.57605007    -0.20200
C1372       C  0.98227556  0.65317290  0.55384963    -0.20200
C1373       C  0.48147918  0.84663966  0.94609019    -0.20200
C1374       C  0.98193245  0.81877072  0.92389359    -0.20200
C1375       C  0.51661556  0.82047402  0.57700392    -0.21200
C1376       C  0.51615128  0.84831876  0.55494016    -0.21200
C1377       C  0.01611107  0.65169646  0.94485715    -0.21200
C1378       C  0.01628576  0.67954065  0.92279241    -0.21200
C1379       C  0.50190019  0.75022474  0.57817758    -0.16600
C1380       C  0.00042089  0.65108832  0.49959906    -0.16600
C1381       C  0.00111521  0.74966088  0.92167199    -0.16600
C1382       C  0.50019207  0.84882580  0.50023174    -0.16600
H1383       H  0.47496745  0.67675869  0.59941401     0.16300
H1384       H  0.97367466  0.62333152  0.55691833     0.16300
H1385       H  0.47280808  0.87645134  0.94306420     0.16300
H1386       H  0.97376966  0.82299681  0.90057221     0.16300
H1387       H  0.52297000  0.82521474  0.60061543     0.14600
H1388       H  0.52232711  0.87870750  0.55830538     0.14600
H1389       H  0.02243184  0.62135182  0.94147894     0.14600
H1390       H  0.02252457  0.67484569  0.89915823     0.14600
H1391       H  0.51695456  0.72698805  0.51829399     0.27900
H1392       H  0.51664644  0.77298264  0.98145766     0.27900
N1393       N  0.50306175  0.79153946  0.71681126    -0.35500
N1394       N  0.50021644  0.79164277  0.78333532    -0.55500
N1395       N  0.50267898  0.70812338  0.78306796    -0.34900
N1396       N  0.50055791  0.70801487  0.71652308    -0.55500
C1397       C  0.49482776  0.82912132  0.72243575     0.28700
C1398       C  0.49563989  0.78486544  0.68720226     0.28700
C1399       C  0.49496910  0.71479518  0.81263123     0.28700
C1400       C  0.49452951  0.67051829  0.77740281     0.28700
C1401       C  0.50602708  0.82976187  0.77826978     0.37300
C1402       C  0.50657697  0.78572259  0.81312640     0.37300
C1403       C  0.50713438  0.71393703  0.68675596     0.37300
C1404       C  0.50622003  0.66988759  0.72161504     0.37300
C1405       C  0.48219594  0.84656514  0.69602477    -0.20200
C1406       C  0.48285468  0.81871881  0.67381964    -0.20200
C1407       C  0.48206806  0.68091807  0.82594717    -0.20200
C1408       C  0.48164607  0.65305612  0.80374452    -0.20200
C1409       C  0.51601547  0.84811498  0.80502084    -0.21200
C1410       C  0.51622366  0.82026389  0.82708008    -0.21200
C1411       C  0.51675500  0.67938550  0.67283882    -0.21200
C1412       C  0.51632255  0.65153166  0.69489685    -0.21200
C1413       C  0.50035500  0.84869231  0.75027225    -0.16600
C1414       C  0.50193147  0.74958348  0.67167713    -0.16600
C1415       C  0.50034016  0.65095372  0.74959963    -0.16600
C1416       C  0.50115210  0.75009176  0.82818365    -0.16600
H1417       H  0.47356345  0.87638163  0.69296244     0.16300
H1418       H  0.47490383  0.82297011  0.65045699     0.16300
H1419       H  0.47390611  0.67665874  0.84926645     0.16300
H1420       H  0.47300398  0.62321803  0.80676418     0.16300
H1421       H  0.52229235  0.87847974  0.80840672     0.14600
H1422       H  0.52244983  0.82497211  0.85071648     0.14600
H1423       H  0.52311757  0.67467355  0.64922694     0.14600
H1424       H  0.52253591  0.62116364  0.69152697     0.14600
H1425       H  0.51696832  0.77284927  0.73156459     0.27900
H1426       H  0.51672564  0.72683761  0.76839431     0.27900
Zn1427     Zn  0.96593801  0.96644419  0.52378420     1.49700
Zn1428     Zn  0.53284946  0.96651101  0.97597654     1.49400
Zn1429     Zn  0.96588676  0.53344407  0.97605691     1.49100
Zn1430     Zn  0.53294783  0.53342385  0.52381039     1.49500
O1431       O  0.49938467  0.99997031  0.49990118    -1.82400
O1432       O  0.97605130  0.90964569  0.51696442    -0.73100
O1433       O  0.52226987  0.97708907  0.93331706    -0.72900
O1434       O  0.90906314  0.52331468  0.98288968    -0.72400
O1435       O  0.52301805  0.90974838  0.98289750    -0.73100
O1436       O  0.90913386  0.97619498  0.51680857    -0.72700
O1437       O  0.97655674  0.52280646  0.93334740    -0.73300
O1438       O  0.52333902  0.59016506  0.51676098    -0.72600
O1439       O  0.58963707  0.97635970  0.98290974    -0.73400
O1440       O  0.97602325  0.59026989  0.98296859    -0.72800
O1441       O  0.58970333  0.52332458  0.51704580    -0.73300
O1442       O  0.52227054  0.52295134  0.56650951    -0.73200
O1443       O  0.97657077  0.97713395  0.56646860    -0.73000
C1444       C  0.49967480  0.89170928  0.49999876     0.78800
C1445       C  0.49942475  0.99994837  0.91987700     0.79300
C1446       C  0.89110368  0.99962435  0.49978004     0.78300
C1447       C  0.49984665  0.60820700  0.49979900     0.78700
C1448       C  0.60765840  0.99975513  0.50005272     0.79800
C1449       C  0.49943486  0.00002821  0.57994656     0.78800
Zn1450     Zn  0.96587546  0.96630661  0.77377431     1.49700
Zn1451     Zn  0.53292086  0.53329763  0.77385145     1.49400
Zn1452     Zn  0.53295378  0.96638171  0.72603292     1.49100
Zn1453     Zn  0.96601709  0.53329483  0.72602767     1.49500
O1454       O  0.49941768  0.99980905  0.74992782    -1.82400
O1455       O  0.97655769  0.97696907  0.81648148    -0.73100
O1456       O  0.58969985  0.52349545  0.76692691    -0.72900
O1457       O  0.52330898  0.90964051  0.73311208    -0.72400
O1458       O  0.52232456  0.52272307  0.81651196    -0.73100
O1459       O  0.97595327  0.90947800  0.76687755    -0.72700
O1460       O  0.58971458  0.97654552  0.73279448    -0.73300
O1461       O  0.97661981  0.52256657  0.68334718    -0.72600
O1462       O  0.52314003  0.59004998  0.76692847    -0.73400
O1463       O  0.52227652  0.97679636  0.68332826    -0.72800
O1464       O  0.97619892  0.59010392  0.73282886    -0.73300
O1465       O  0.90920242  0.52353049  0.73302474    -0.73200
O1466       O  0.90905965  0.97641677  0.76695077    -0.73000
C1467       C  0.49944812  0.99985081  0.82995196     0.78800
C1468       C  0.60769214  0.00013212  0.74978872     0.79300
C1469       C  0.49979189  0.89157252  0.75006444     0.78300
C1470       C  0.49945557  0.99967903  0.66988012     0.78700
C1471       C  0.49981355  0.60806875  0.74981474     0.79800
C1472       C  0.89113530  0.00010465  0.75006150     0.78800
N1473       N  0.79112081  0.99677459  0.53307826    -0.34900
N1474       N  0.79108917  0.00001164  0.96653350    -0.55500
N1475       N  0.70760750  0.99764983  0.96681327    -0.34900
N1476       N  0.70761649  0.99924372  0.53332811    -0.55500
C1477       C  0.82872933  0.00488267  0.52743694     0.28700
C1478       C  0.78449460  0.00448682  0.56265293     0.28700
C1479       C  0.71424407  0.00581244  0.93733467     0.28700
C1480       C  0.67005046  0.00576483  0.97257099     0.28700
C1481       C  0.82914390  0.99377629  0.97158849     0.37300
C1482       C  0.78503493  0.99377970  0.93672099     0.37300
C1483       C  0.71358757  0.99278614  0.56309737     0.37300
C1484       C  0.66951986  0.99332104  0.52821359     0.37300
C1485       C  0.84626168  0.01765718  0.55380792    -0.20200
C1486       C  0.81842252  0.01728907  0.57599760    -0.20200
C1487       C  0.68041260  0.01907018  0.92417858    -0.20200
C1488       C  0.65259097  0.01917355  0.94639515    -0.20200
C1489       C  0.84731978  0.98366579  0.94480949    -0.21200
C1490       C  0.81942792  0.98380281  0.92274814    -0.21200
C1491       C  0.67910380  0.98289921  0.57699089    -0.21200
C1492       C  0.65123703  0.98306210  0.55490696    -0.21200
C1493       C  0.84820610  0.99921104  0.49959709    -0.16600
C1494       C  0.74918327  0.99846661  0.57818891    -0.16600
C1495       C  0.65052519  0.99939544  0.50027958    -0.16600
C1496       C  0.74941161  0.99951893  0.92169187    -0.16600
H1497       H  0.87611656  0.02625024  0.55684362     0.16300
H1498       H  0.82273573  0.02541780  0.59933095     0.16300
H1499       H  0.67613756  0.02757188  0.90093893     0.16300
H1500       H  0.62276813  0.02788734  0.94348865     0.16300
H1501       H  0.87759358  0.97705388  0.94141264     0.14600
H1502       H  0.82400265  0.97750712  0.89911121     0.14600
H1503       H  0.67444478  0.97655503  0.60060177     0.14600
H1504       H  0.62089069  0.97669628  0.55825711     0.14600
H1505       H  0.77236079  0.98284165  0.51833559     0.27900
H1506       H  0.72625906  0.98323417  0.98131212     0.27900
N1507       N  0.79115556  0.00302132  0.71677822    -0.34900
N1508       N  0.70764855  0.00063857  0.71652919    -0.55500
N1509       N  0.70764750  0.00222070  0.78304079    -0.34900
N1510       N  0.79112424  0.99979487  0.78332538    -0.55500
C1511       C  0.78450081  0.99530545  0.68720556     0.28700
C1512       C  0.82873684  0.99486397  0.72242160     0.28700
C1513       C  0.67007023  0.99412284  0.77728334     0.28700
C1514       C  0.71426222  0.99406733  0.81252141     0.28700
C1515       C  0.71363479  0.00709500  0.68676091     0.37300
C1516       C  0.66956894  0.00658931  0.72164290     0.37300
C1517       C  0.82919827  0.00598691  0.77826956     0.37300
C1518       C  0.78508822  0.00603937  0.81313722     0.37300
C1519       C  0.81838351  0.98244765  0.67386435    -0.20200
C1520       C  0.84622350  0.98205176  0.69605400    -0.20200
C1521       C  0.65257655  0.98073409  0.80346140    -0.20200
C1522       C  0.68039680  0.98083442  0.82567932    -0.20200
C1523       C  0.67917846  0.01701460  0.67286807    -0.21200
C1524       C  0.65131236  0.01686724  0.69495105    -0.21200
C1525       C  0.84740569  0.01608153  0.80504847    -0.21200
C1526       C  0.81951278  0.01597960  0.82710982    -0.21200
C1527       C  0.74920870  0.00137013  0.67166838    -0.16600
C1528       C  0.84823775  0.00052832  0.75025781    -0.16600
C1529       C  0.74944473  0.00034413  0.82816496    -0.16600
C1530       C  0.65055862  0.00051648  0.74957329    -0.16600
H1531       H  0.82266638  0.97430122  0.65053336     0.16300
H1532       H  0.87604941  0.97341623  0.69302093     0.16300
H1533       H  0.62273232  0.97203647  0.80636910     0.16300
H1534       H  0.67609919  0.97234490  0.84892084     0.16300
H1535       H  0.67453520  0.02336404  0.64925748     0.14600
H1536       H  0.62098254  0.02325400  0.69160179     0.14600
H1537       H  0.87769998  0.02266007  0.80844545     0.14600
H1538       H  0.82410691  0.02227343  0.85074645     0.14600
H1539       H  0.77244376  0.01699110  0.73151753     0.27900
H1540       H  0.72633795  0.01661859  0.76853922     0.27900
C1541       C  0.74905879  0.99986157  0.88864217    -0.11600
C1542       C  0.74907671  0.00002044  0.86121468    -0.13100
C1543       C  0.74931685  0.99945259  0.61122290    -0.11600
C1544       C  0.74932909  0.00037696  0.63863461    -0.13100
C1545       C  0.49945847  0.99988072  0.86154560    -0.11600
C1546       C  0.49944904  0.99993146  0.88828338    -0.13100
C1547       C  0.49951127  0.99974528  0.63828298    -0.11600
C1548       C  0.49950445  0.99992683  0.61154359    -0.13100
C1549       C  0.50087994  0.74988884  0.86121932    -0.11600
C1550       C  0.50086759  0.74985727  0.88863622    -0.13100
C1551       C  0.50188152  0.74982964  0.63863683    -0.11600
C1552       C  0.50187123  0.74998482  0.61121796    -0.13100
loop_ 
_geom_bond_atom_site_label_1 
_geom_bond_atom_site_label_2 
_geom_bond_distance 
_geom_bond_site_symmetry_2 
_ccdc_geom_bond_type 
N1           H33   1.039       .  S
N1            C5   1.358   1_455  A
N1          C782   1.354   1_455  A
N2            C9   1.356       .  A
N2           C10   1.352       .  A
N3           H34   1.039       .  S
N3            C7   1.353   1_455  A
N3          C784   1.358   1_455  A
N4           C11   1.352       .  A
N4           C12   1.356       .  A
C5           C13   1.386       .  A
C5           C21   1.417   1_655  A
C6          N777   1.354       .  A
C6           C22   1.420   1_554  A
C6           C14   1.389       .  A
C7           C15   1.389       .  A
C7          C218   1.420   1_655  A
C8          N779   1.358       .  A
C8           C23   1.417       .  A
C8           C16   1.386       .  A
C9           C21   1.415       .  A
C9           C17   1.385       .  A
C10          C24   1.419       .  A
C10          C18   1.389       .  A
C11          C19   1.389       .  A
C11         C216   1.418       .  A
C12          C20   1.385       .  A
C12          C23   1.414       .  A
C13         C790   1.377       .  A
C13          H25   1.082       .  S
C14         C789   1.377       .  A
C14          H26   1.082       .  S
C15         C792   1.377       .  A
C15          H27   1.082       .  S
C16         C791   1.377       .  A
C16          H28   1.082       .  S
C17          C18   1.374       .  A
C17          H29   1.082       .  S
C18          H30   1.082       .  S
C19          C20   1.374       .  A
C19          H31   1.082       .  S
C20          H32   1.082       .  S
C21         C194   1.466       .  S
C22         C205   1.418       .  A
C22         C865   1.483       .  S
C23         C968   1.466       .  S
C24         C201   1.420   1_454  A
C24          C86   1.483   1_454  S
N35          H67   1.039       .  S
N35          C40   1.358   1_455  A
N35          C39   1.354   1_455  A
N36          C43   1.352       .  A
N36          C44   1.356       .  A
N37          H68   1.039       .  S
N37          C42   1.353   1_455  A
N37          C41   1.358   1_455  A
N38          C45   1.356       .  A
N38          C46   1.352       .  A
C39          C47   1.389       .  A
C39          C55   1.420   1_655  A
C40          C56   1.417   1_655  A
C40          C48   1.386       .  A
C41          C49   1.386       .  A
C41          C58   1.417   1_655  A
C42          C57   1.420   1_655  A
C42          C50   1.389       .  A
C43          C55   1.418       .  A
C43          C51   1.389       .  A
C44          C58   1.415       .  A
C44          C52   1.385       .  A
C45          C53   1.385       .  A
C45          C56   1.415       .  A
C46          C54   1.389       .  A
C46          C57   1.419       .  A
C47          C48   1.377       .  A
C47          H59   1.082       .  S
C48          H60   1.082       .  S
C49          C50   1.377       .  A
C49          H61   1.082       .  S
C50          H62   1.082       .  S
C51          C52   1.374       .  A
C51          H63   1.082       .  S
C52          H64   1.082       .  S
C53          C54   1.374       .  A
C53          H65   1.082       .  S
C54          H66   1.082       .  S
C55         C111   1.483   1_455  S
C56         C193   1.466       .  S
C57         C113   1.483   1_455  S
C58         C191   1.466       .  S
Zn69         O74   2.018       .  S
Zn69         O78   2.017       .  S
Zn69         O85   1.963       .  S
Zn69        O849   1.950   1_554  S
Zn70         O75   1.962       .  S
Zn70         O77   2.016       .  S
Zn70         O81   2.016       .  S
Zn70        O267   1.950   1_455  S
Zn71         O76   2.018       .  S
Zn71         O79   1.965       .  S
Zn71         O82   2.019       .  S
Zn71       O1431   1.951   1_545  S
Zn72         O80   2.015       .  S
Zn72         O83   2.016       .  S
Zn72         O84   1.964       .  S
Zn72        O461   1.950   1_444  S
O73        Zn845   1.950   1_556  S
O73        Zn264   1.950   1_655  S
O73       Zn1429   1.951       .  S
O73        Zn460   1.950   1_656  S
O74         C862   1.272   1_554  A
O75          C87   1.268   1_455  A
O76         C670   1.272   1_545  A
O77         C280   1.272   1_455  A
O78          C88   1.272   1_554  A
O79        C1251   1.268   1_545  A
O80          C89   1.272   1_454  A
O81         C284   1.272       .  A
O82        C1059   1.272       .  A
O83         C478   1.272   1_545  A
O84         C479   1.268   1_455  A
O85         C867   1.268       .  A
C86         O850   1.272   1_556  A
C86         O271   1.272   1_655  A
C87         C188   1.401       .  S
C87        O1243   1.268       .  A
C88         C135   1.483       .  S
C88         O658   1.272       .  A
C89         C798   1.483   1_655  S
C89        O1052   1.272       .  A
C90         C137   1.482       .  S
C90         O275   1.272   1_554  A
C90         O471   1.272       .  A
C91         C190   1.402       .  S
C91         O472   1.268   1_655  A
C91         O861   1.268       .  A
Zn92         O97   1.965       .  S
Zn92        O101   2.019       .  S
Zn92        O108   2.019       .  S
Zn92        O872   1.951       .  S
Zn93         O98   2.016       .  S
Zn93        O100   1.962       .  S
Zn93        O104   2.016       .  S
Zn93        O484   1.950   1_445  S
Zn94         O99   2.015       .  S
Zn94        O102   2.016       .  S
Zn94        O105   1.964       .  S
Zn94         O96   1.950   1_455  S
Zn95        O103   1.963       .  S
Zn95        O106   2.018       .  S
Zn95        O107   2.017       .  S
Zn95       O1260   1.950   1_545  S
O96        Zn868   1.951       .  S
O96        Zn481   1.950   1_655  S
O96       Zn1259   1.950       .  S
O97         C885   1.268       .  A
O98         C498   1.272       .  A
O99         C111   1.272   1_455  A
O100        C497   1.268   1_445  A
O101        C887   1.272       .  A
O102        C110   1.272       .  A
O103       C1276   1.268   1_545  A
O104        C113   1.272   1_455  A
O105        C112   1.268   1_455  A
O106        C889   1.272       .  A
O107        C502   1.272       .  A
O108        C114   1.272       .  A
C109        C187   1.401       .  S
C109        O873   1.268       .  A
C109        O488   1.268   1_655  A
C110        C172   1.482       .  S
C110        O486   1.272       .  A
C111        O877   1.272       .  A
C112        C189   1.402       .  S
C112       O1267   1.268       .  A
C113        O882   1.272       .  A
C114        C170   1.483       .  S
C114        O495   1.272       .  A
N115        H147   1.039       .  S
N115        C120   1.358       .  A
N115        C119   1.353       .  A
N116        C123   1.352       .  A
N116        C124   1.356       .  A
N117        H148   1.039       .  S
N117        C122   1.353       .  A
N117        C121   1.358       .  A
N118        C125   1.355       .  A
N118        C126   1.352       .  A
C119        C127   1.389       .  A
C119        C135   1.420   1_554  A
C120        C136   1.417       .  A
C120        C128   1.386       .  A
C121        C129   1.386       .  A
C121        C138   1.417       .  A
C122        C130   1.389       .  A
C122        C331   1.420       .  A
C123        C131   1.388       .  A
C123        C329   1.419       .  A
C124        C138   1.415       .  A
C124        C132   1.385       .  A
C125        C133   1.385       .  A
C125        C136   1.415       .  A
C126        C134   1.389       .  A
C126        C137   1.418       .  A
C127        C128   1.377       .  A
C127        H139   1.082       .  S
C128        H140   1.083       .  S
C129        C130   1.377       .  A
C129        H141   1.083       .  S
C130        H142   1.082       .  S
C131        C132   1.374       .  A
C131        H143   1.082       .  S
C132        H144   1.082       .  S
C133        C134   1.374       .  A
C133        H145   1.082       .  S
C134        H146   1.082       .  S
C135        C317   1.419       .  A
C136        C185   1.466       .  S
C137        C316   1.420   1_554  A
C138        C183   1.466       .  S
N149        H181   1.039       .  S
N149        C154   1.353       .  A
N149        C153   1.358       .  A
N150        C157   1.355       .  A
N150        C158   1.352       .  A
N151        H182   1.039       .  S
N151        C156   1.358       .  A
N151        C155   1.353       .  A
N152        C159   1.352       .  A
N152        C160   1.356       .  A
C153        C161   1.386       .  A
C153        C169   1.417       .  A
C154        C170   1.420       .  A
C154        C162   1.389       .  A
C155        C163   1.389       .  A
C155        C172   1.420       .  A
C156        C171   1.417       .  A
C156        C164   1.386       .  A
C157        C169   1.414       .  A
C157        C165   1.385       .  A
C158        C172   1.418       .  A
C158        C166   1.389       .  A
C159        C167   1.388       .  A
C159        C170   1.419       .  A
C160        C168   1.385       .  A
C160        C171   1.415       .  A
C161        C162   1.377       .  A
C161        H173   1.083       .  S
C162        H174   1.082       .  S
C163        C164   1.377       .  A
C163        H175   1.082       .  S
C164        H176   1.083       .  S
C165        C166   1.374       .  A
C165        H177   1.082       .  S
C166        H178   1.082       .  S
C167        C168   1.374       .  A
C167        H179   1.082       .  S
C168        H180   1.082       .  S
C169        C186   1.466       .  S
C171        C184   1.466       .  S
C183        C184   1.217       .  T
C185        C186   1.216       .  T
C187        C188   1.186       .  T
C189        C190   1.186       .  T
C191        C192   1.216       .  T
C192        C799   1.466       .  S
C193        C194   1.216       .  T
N195        H227   1.039       .  S
N195        C976   1.354   1_455  A
N195        C199   1.358   1_455  A
N196        C203   1.356       .  A
N196        C204   1.352       .  A
N197        H228   1.039       .  S
N197        C978   1.358   1_455  A
N197        C201   1.353   1_455  A
N198        C205   1.352       .  A
N198        C206   1.356       .  A
C199        C207   1.386       .  A
C199        C215   1.417   1_655  A
C200        N971   1.354       .  A
C200        C216   1.420       .  A
C200        C208   1.389       .  A
C201        C209   1.389       .  A
C202        N973   1.358       .  A
C202        C217   1.417       .  A
C202        C210   1.386       .  A
C203        C215   1.415       .  A
C203        C211   1.385       .  A
C204        C218   1.419       .  A
C204        C212   1.389       .  A
C205        C213   1.389       .  A
C206        C214   1.385       .  A
C206        C217   1.415       .  A
C207        C984   1.377       .  A
C207        H219   1.082       .  S
C208        C983   1.377       .  A
C208        H220   1.082       .  S
C209        C986   1.377       .  A
C209        H221   1.082       .  S
C210        C985   1.377       .  A
C210        H222   1.082       .  S
C211        C212   1.374       .  A
C211        H223   1.082       .  S
C212        H224   1.082       .  S
C213        C214   1.374       .  A
C213        H225   1.082       .  S
C214        H226   1.082       .  S
C215        C388   1.466       .  S
C216       C1059   1.483       .  S
C217       C1162   1.466       .  S
C218        C280   1.483   1_455  S
N229        H261   1.039       .  S
N229        C234   1.358   1_455  A
N229        C233   1.354   1_455  A
N230        C237   1.352       .  A
N230        C238   1.356       .  A
N231        H262   1.039       .  S
N231        C236   1.353   1_455  A
N231        C235   1.358   1_455  A
N232        C239   1.356       .  A
N232        C240   1.352       .  A
C233        C241   1.389       .  A
C233        C249   1.420   1_655  A
C234        C250   1.417   1_655  A
C234        C242   1.386       .  A
C235        C243   1.386       .  A
C235        C252   1.417   1_655  A
C236        C251   1.420   1_655  A
C236        C244   1.389       .  A
C237        C249   1.418       .  A
C237        C245   1.389       .  A
C238        C252   1.415       .  A
C238        C246   1.385       .  A
C239        C247   1.385       .  A
C239        C250   1.415       .  A
C240        C248   1.389       .  A
C240        C251   1.419       .  A
C241        C242   1.377       .  A
C241        H253   1.082       .  S
C242        H254   1.082       .  S
C243        C244   1.377       .  A
C243        H255   1.082       .  S
C244        H256   1.082       .  S
C245        C246   1.374       .  A
C245        H257   1.082       .  S
C246        H258   1.082       .  S
C247        C248   1.374       .  A
C247        H259   1.082       .  S
C248        H260   1.082       .  S
C249        C305   1.483   1_455  S
C250        C387   1.466       .  S
C251        C307   1.483   1_455  S
C252        C385   1.466       .  S
Zn263       O268   2.018       .  S
Zn263       O272   2.017       .  S
Zn263       O279   1.963       .  S
Zn263      O1043   1.950       .  S
Zn264       O269   1.962       .  S
Zn264       O271   2.016       .  S
Zn264       O275   2.016       .  S
Zn265       O270   2.018       .  S
Zn265       O273   1.965       .  S
Zn265       O276   2.019       .  S
Zn265      O1237   1.951   1_545  S
Zn266       O274   2.015       .  S
Zn266       O277   2.016       .  S
Zn266       O278   1.964       .  S
Zn266       O655   1.950   1_445  S
O267      Zn1039   1.950       .  S
O267      Zn1235   1.951       .  S
O267       Zn654   1.950   1_655  S
O268       C1056   1.272       .  A
O269        C281   1.268   1_455  A
O270        C476   1.272   1_545  A
O272        C282   1.272       .  A
O273       C1445   1.268   1_545  A
O274        C283   1.272   1_455  A
O276        C865   1.272       .  A
O277        C672   1.272   1_545  A
O278        C673   1.268   1_455  A
O279       C1061   1.268       .  A
C280       O1044   1.272       .  A
C281        C382   1.401       .  S
C281       O1437   1.268       .  A
C282        C329   1.483       .  S
C282        O464   1.272       .  A
C283        C992   1.483   1_655  S
C283        O858   1.272       .  A
C284        C331   1.482       .  S
C284        O665   1.272       .  A
C285        C384   1.402       .  S
C285        O666   1.268   1_655  A
C285       O1055   1.268       .  A
Zn286       O291   1.965       .  S
Zn286       O295   2.019       .  S
Zn286       O302   2.019       .  S
Zn286      O1066   1.951       .  S
Zn287       O292   2.016       .  S
Zn287       O294   1.962       .  S
Zn287       O298   2.016       .  S
Zn287       O678   1.950   1_445  S
Zn288       O293   2.015       .  S
Zn288       O296   2.016       .  S
Zn288       O299   1.964       .  S
Zn288       O290   1.950   1_455  S
Zn289       O297   1.963       .  S
Zn289       O300   2.018       .  S
Zn289       O301   2.017       .  S
Zn289      O1454   1.950   1_545  S
O290      Zn1062   1.951       .  S
O290       Zn675   1.950   1_655  S
O290      Zn1453   1.950       .  S
O291       C1079   1.268       .  A
O292        C692   1.272       .  A
O293        C305   1.272   1_455  A
O294        C691   1.268   1_445  A
O295       C1081   1.272       .  A
O296        C304   1.272       .  A
O297       C1470   1.268   1_545  A
O298        C307   1.272   1_455  A
O299        C306   1.268   1_455  A
O300       C1083   1.272       .  A
O301        C696   1.272       .  A
O302        C308   1.272       .  A
C303        C381   1.401       .  S
C303       O1067   1.268       .  A
C303        O682   1.268   1_655  A
C304        C366   1.482       .  S
C304        O680   1.272       .  A
C305       O1071   1.272       .  A
C306        C383   1.402       .  S
C306       O1461   1.268       .  A
C307       O1076   1.272       .  A
C308        C364   1.483       .  S
C308        O689   1.272       .  A
N309        H341   1.039       .  S
N309        C314   1.358       .  A
N309        C313   1.353       .  A
N310        C317   1.352       .  A
N310        C318   1.356       .  A
N311        H342   1.039       .  S
N311        C316   1.353       .  A
N311        C315   1.358       .  A
N312        C319   1.355       .  A
N312        C320   1.352       .  A
C313        C321   1.389       .  A
C313        C329   1.420       .  A
C314        C330   1.417       .  A
C314        C322   1.386       .  A
C315        C323   1.386       .  A
C315        C332   1.417       .  A
C316        C324   1.389       .  A
C317        C325   1.388       .  A
C318        C332   1.415       .  A
C318        C326   1.385       .  A
C319        C327   1.385       .  A
C319        C330   1.415       .  A
C320        C328   1.389       .  A
C320        C331   1.418       .  A
C321        C322   1.377       .  A
C321        H333   1.082       .  S
C322        H334   1.083       .  S
C323        C324   1.377       .  A
C323        H335   1.083       .  S
C324        H336   1.082       .  S
C325        C326   1.374       .  A
C325        H337   1.082       .  S
C326        H338   1.082       .  S
C327        C328   1.374       .  A
C327        H339   1.082       .  S
C328        H340   1.082       .  S
C330        C379   1.466       .  S
C332        C377   1.466       .  S
N343        H375   1.039       .  S
N343        C348   1.353       .  A
N343        C347   1.358       .  A
N344        C351   1.355       .  A
N344        C352   1.352       .  A
N345        H376   1.039       .  S
N345        C350   1.358       .  A
N345        C349   1.353       .  A
N346        C353   1.352       .  A
N346        C354   1.356       .  A
C347        C355   1.386       .  A
C347        C363   1.417       .  A
C348        C364   1.420       .  A
C348        C356   1.389       .  A
C349        C357   1.389       .  A
C349        C366   1.420       .  A
C350        C365   1.417       .  A
C350        C358   1.386       .  A
C351        C363   1.414       .  A
C351        C359   1.385       .  A
C352        C366   1.418       .  A
C352        C360   1.389       .  A
C353        C361   1.388       .  A
C353        C364   1.419       .  A
C354        C362   1.385       .  A
C354        C365   1.415       .  A
C355        C356   1.377       .  A
C355        H367   1.083       .  S
C356        H368   1.082       .  S
C357        C358   1.377       .  A
C357        H369   1.082       .  S
C358        H370   1.083       .  S
C359        C360   1.374       .  A
C359        H371   1.082       .  S
C360        H372   1.082       .  S
C361        C362   1.374       .  A
C361        H373   1.082       .  S
C362        H374   1.082       .  S
C363        C380   1.466       .  S
C365        C378   1.466       .  S
C377        C378   1.217       .  T
C379        C380   1.216       .  T
C381        C382   1.186       .  T
C383        C384   1.186       .  T
C385        C386   1.216       .  T
C386        C993   1.466       .  S
C387        C388   1.216       .  T
N389        H421   1.039       .  S
N389       C1170   1.354   1_455  A
N389        C393   1.358   1_455  A
N390        C397   1.356       .  A
N390        C398   1.352       .  A
N391        H422   1.039       .  S
N391       C1172   1.358   1_455  A
N391        C395   1.353   1_455  A
N392        C399   1.352       .  A
N392        C400   1.356       .  A
C393        C401   1.386       .  A
C393        C409   1.417   1_655  A
C394       N1165   1.354       .  A
C394        C410   1.420   1_554  A
C394        C402   1.389       .  A
C395        C403   1.389       .  A
C395        C606   1.420   1_655  A
C396       N1167   1.358       .  A
C396        C411   1.417       .  A
C396        C404   1.386       .  A
C397        C409   1.415       .  A
C397        C405   1.385       .  A
C398        C412   1.419       .  A
C398        C406   1.389       .  A
C399        C407   1.389       .  A
C399        C604   1.418       .  A
C400        C408   1.385       .  A
C400        C411   1.414       .  A
C401       C1178   1.377       .  A
C401        H413   1.082       .  S
C402       C1177   1.377       .  A
C402        H414   1.082       .  S
C403       C1180   1.377       .  A
C403        H415   1.082       .  S
C404       C1179   1.377       .  A
C404        H416   1.082       .  S
C405        C406   1.374       .  A
C405        H417   1.082       .  S
C406        H418   1.082       .  S
C407        C408   1.374       .  A
C407        H419   1.082       .  S
C408        H420   1.082       .  S
C409        C582   1.466       .  S
C410        C593   1.418       .  A
C410       C1253   1.483       .  S
C411       C1356   1.466       .  S
C412        C589   1.420   1_454  A
C412        C474   1.483   1_454  S
N423        H455   1.039       .  S
N423        C428   1.358   1_455  A
N423        C427   1.354   1_455  A
N424        C431   1.352       .  A
N424        C432   1.356       .  A
N425        H456   1.039       .  S
N425        C430   1.353   1_455  A
N425        C429   1.358   1_455  A
N426        C433   1.356       .  A
N426        C434   1.352       .  A
C427        C435   1.389       .  A
C427        C443   1.420   1_655  A
C428        C444   1.417   1_655  A
C428        C436   1.386       .  A
C429        C437   1.386       .  A
C429        C446   1.417   1_655  A
C430        C445   1.420   1_655  A
C430        C438   1.389       .  A
C431        C443   1.418       .  A
C431        C439   1.389       .  A
C432        C446   1.415       .  A
C432        C440   1.385       .  A
C433        C441   1.385       .  A
C433        C444   1.415       .  A
C434        C442   1.389       .  A
C434        C445   1.419       .  A
C435        C436   1.377       .  A
C435        H447   1.082       .  S
C436        H448   1.082       .  S
C437        C438   1.377       .  A
C437        H449   1.082       .  S
C438        H450   1.082       .  S
C439        C440   1.374       .  A
C439        H451   1.082       .  S
C440        H452   1.082       .  S
C441        C442   1.374       .  A
C441        H453   1.082       .  S
C442        H454   1.082       .  S
C443        C499   1.483   1_455  S
C444        C581   1.466       .  S
C445        C501   1.483   1_455  S
C446        C579   1.466       .  S
Zn457       O462   2.018       .  S
Zn457       O466   2.017       .  S
Zn457       O473   1.963       .  S
Zn457      O1237   1.950   1_554  S
Zn458       O463   1.962       .  S
Zn458       O465   2.016       .  S
Zn458       O469   2.016       .  S
Zn458       O655   1.950   1_455  S
Zn459       O464   2.018       .  S
Zn459       O467   1.965       .  S
Zn459       O470   2.019       .  S
Zn459      O1043   1.951       .  S
Zn460       O468   2.015       .  S
Zn460       O471   2.016       .  S
Zn460       O472   1.964       .  S
O461      Zn1233   1.950   1_556  S
O461       Zn652   1.950   1_655  S
O461      Zn1041   1.951   1_565  S
O462       C1250   1.272   1_554  A
O463        C475   1.268   1_455  A
O465        C668   1.272   1_455  A
O466        C476   1.272   1_554  A
O467        C863   1.268       .  A
O468        C477   1.272   1_454  A
O469        C672   1.272       .  A
O470       C1447   1.272       .  A
O473       C1255   1.268   1_565  A
C474       O1238   1.272   1_556  A
C474        O659   1.272   1_655  A
C475        C576   1.401       .  S
C475        O855   1.268   1_565  A
C476        C523   1.483       .  S
C477       C1186   1.483   1_655  S
C477       O1440   1.272       .  A
C478        C525   1.482       .  S
C478        O663   1.272   1_554  A
C479        C578   1.402   1_545  S
C479       O1249   1.268   1_545  A
Zn480       O485   1.965       .  S
Zn480       O489   2.019       .  S
Zn480       O496   2.019       .  S
Zn480      O1260   1.951       .  S
Zn481       O486   2.016       .  S
Zn481       O488   1.962       .  S
Zn481       O492   2.016       .  S
Zn482       O487   2.015       .  S
Zn482       O490   2.016       .  S
Zn482       O493   1.964       .  S
Zn482       O484   1.950   1_455  S
Zn483       O491   1.963       .  S
Zn483       O494   2.018       .  S
Zn483       O495   2.017       .  S
Zn483       O872   1.950       .  S
O484      Zn1256   1.951       .  S
O484       Zn871   1.950   1_565  S
O485       C1273   1.268       .  A
O487        C499   1.272   1_455  A
O489       C1275   1.272       .  A
O490        C498   1.272   1_565  A
O491        C888   1.268       .  A
O492        C501   1.272   1_455  A
O493        C500   1.268   1_455  A
O494       C1277   1.272       .  A
O496        C502   1.272   1_565  A
C497        C575   1.401       .  S
C497       O1261   1.268       .  A
C498        C560   1.482       .  S
C499       O1265   1.272       .  A
C500        C577   1.402       .  S
C500        O879   1.268   1_565  A
C501       O1270   1.272       .  A
C502        C558   1.483       .  S
N503        H535   1.039       .  S
N503        C508   1.358   1_565  A
N503        C507   1.353   1_565  A
N504        C511   1.352   1_545  A
N504        C512   1.356   1_545  A
N505        H536   1.039       .  S
N505        C510   1.353   1_565  A
N505        C509   1.358   1_565  A
N506        C513   1.355       .  A
N506        C514   1.352       .  A
C507        C515   1.389       .  A
C507        C523   1.420   1_544  A
C508        C524   1.417   1_545  A
C508        C516   1.386       .  A
C509        C517   1.386       .  A
C509        C526   1.417   1_545  A
C510        C719   1.420   1_545  A
C510        C518   1.389       .  A
C511        C717   1.419       .  A
C511        C519   1.388       .  A
C512        C526   1.415       .  A
C512        C520   1.385       .  A
C513        C521   1.385       .  A
C513        C524   1.415       .  A
C514        C522   1.389       .  A
C514        C525   1.418       .  A
C515        C516   1.377       .  A
C515        H527   1.082       .  S
C516        H528   1.083       .  S
C517        C518   1.377       .  A
C517        H529   1.083       .  S
C518        H530   1.082       .  S
C519        C520   1.374       .  A
C519        H531   1.082       .  S
C520        H532   1.082       .  S
C521        C522   1.374       .  A
C521        H533   1.082       .  S
C522        H534   1.082       .  S
C523        C705   1.419       .  A
C524        C573   1.466       .  S
C525        C704   1.420   1_564  A
C526        C571   1.466       .  S
N537        H569   1.039       .  S
N537        C542   1.353   1_545  A
N537        C541   1.358   1_545  A
N538        C545   1.355       .  A
N538        C546   1.352       .  A
N539        H570   1.039       .  S
N539        C544   1.358   1_545  A
N539        C543   1.353   1_545  A
N540        C547   1.352   1_565  A
N540        C548   1.356   1_565  A
C541        C549   1.386       .  A
C541        C557   1.417   1_565  A
C542        C558   1.420   1_565  A
C542        C550   1.389       .  A
C543        C551   1.389       .  A
C543        C560   1.420   1_565  A
C544        C559   1.417   1_565  A
C544        C552   1.386       .  A
C545        C557   1.414       .  A
C545        C553   1.385       .  A
C546        C560   1.418       .  A
C546        C554   1.389       .  A
C547        C555   1.388       .  A
C547        C558   1.419       .  A
C548        C556   1.385       .  A
C548        C559   1.415       .  A
C549        C550   1.377       .  A
C549        H561   1.083       .  S
C550        H562   1.082       .  S
C551        C552   1.377       .  A
C551        H563   1.082       .  S
C552        H564   1.083       .  S
C553        C554   1.374       .  A
C553        H565   1.082       .  S
C554        H566   1.082       .  S
C555        C556   1.374       .  A
C555        H567   1.082       .  S
C556        H568   1.082       .  S
C557        C574   1.466       .  S
C559        C572   1.466       .  S
C571        C572   1.217   1_565  T
C573        C574   1.216   1_565  T
C575        C576   1.186       .  T
C577        C578   1.186       .  T
C579        C580   1.216       .  T
C580       C1187   1.466       .  S
C581        C582   1.216       .  T
N583        H615   1.039       .  S
N583       C1364   1.354   1_455  A
N583        C587   1.358   1_455  A
N584        C591   1.356       .  A
N584        C592   1.352       .  A
N585        H616   1.039       .  S
N585       C1366   1.358   1_455  A
N585        C589   1.353   1_455  A
N586        C593   1.352       .  A
N586        C594   1.356       .  A
C587        C595   1.386       .  A
C587        C603   1.417   1_655  A
C588       N1359   1.354       .  A
C588        C604   1.420       .  A
C588        C596   1.389       .  A
C589        C597   1.389       .  A
C590       N1361   1.358       .  A
C590        C605   1.417       .  A
C590        C598   1.386       .  A
C591        C603   1.415       .  A
C591        C599   1.385       .  A
C592        C606   1.419       .  A
C592        C600   1.389       .  A
C593        C601   1.389       .  A
C594        C602   1.385       .  A
C594        C605   1.415       .  A
C595       C1372   1.377       .  A
C595        H607   1.082       .  S
C596       C1371   1.377       .  A
C596        H608   1.082       .  S
C597       C1374   1.377       .  A
C597        H609   1.082       .  S
C598       C1373   1.377       .  A
C598        H610   1.082       .  S
C599        C600   1.374       .  A
C599        H611   1.082       .  S
C600        H612   1.082       .  S
C601        C602   1.374       .  A
C601        H613   1.082       .  S
C602        H614   1.082       .  S
C603        C776   1.466       .  S
C604       C1447   1.483       .  S
C605       C1550   1.466       .  S
C606        C668   1.483   1_455  S
N617        H649   1.039       .  S
N617        C622   1.358   1_455  A
N617        C621   1.354   1_455  A
N618        C625   1.352       .  A
N618        C626   1.356       .  A
N619        H650   1.039       .  S
N619        C624   1.353   1_455  A
N619        C623   1.358   1_455  A
N620        C627   1.356       .  A
N620        C628   1.352       .  A
C621        C629   1.389       .  A
C621        C637   1.420   1_655  A
C622        C638   1.417   1_655  A
C622        C630   1.386       .  A
C623        C631   1.386       .  A
C623        C640   1.417   1_655  A
C624        C639   1.420   1_655  A
C624        C632   1.389       .  A
C625        C637   1.418       .  A
C625        C633   1.389       .  A
C626        C640   1.415       .  A
C626        C634   1.385       .  A
C627        C635   1.385       .  A
C627        C638   1.415       .  A
C628        C636   1.389       .  A
C628        C639   1.419       .  A
C629        C630   1.377       .  A
C629        H641   1.082       .  S
C630        H642   1.082       .  S
C631        C632   1.377       .  A
C631        H643   1.082       .  S
C632        H644   1.082       .  S
C633        C634   1.374       .  A
C633        H645   1.082       .  S
C634        H646   1.082       .  S
C635        C636   1.374       .  A
C635        H647   1.082       .  S
C636        H648   1.082       .  S
C637        C693   1.483   1_455  S
C638        C775   1.466       .  S
C639        C695   1.483   1_455  S
C640        C773   1.466       .  S
Zn651       O656   2.018       .  S
Zn651       O660   2.017       .  S
Zn651       O667   1.963       .  S
Zn651      O1431   1.950       .  S
Zn652       O657   1.962       .  S
Zn652       O659   2.016       .  S
Zn652       O663   2.016       .  S
Zn653       O658   2.018       .  S
Zn653       O661   1.965       .  S
Zn653       O664   2.019       .  S
Zn653       O849   1.951       .  S
Zn654       O662   2.015       .  S
Zn654       O665   2.016       .  S
Zn654       O666   1.964       .  S
O655      Zn1427   1.950       .  S
O655       Zn847   1.951   1_565  S
O656       C1444   1.272       .  A
O657        C669   1.268   1_455  A
O660        C670   1.272       .  A
O661       C1057   1.268       .  A
O662        C671   1.272   1_455  A
O664       C1253   1.272       .  A
O667       C1449   1.268   1_565  A
C668       O1432   1.272       .  A
C669        C770   1.401       .  S
C669       O1049   1.268   1_565  A
C670        C717   1.483       .  S
C671       C1380   1.483   1_655  S
C671       O1246   1.272       .  A
C672        C719   1.482       .  S
C673        C772   1.402   1_545  S
C673       O1443   1.268   1_545  A
Zn674       O679   1.965       .  S
Zn674       O683   2.019       .  S
Zn674       O690   2.019       .  S
Zn674      O1454   1.951       .  S
Zn675       O680   2.016       .  S
Zn675       O682   1.962       .  S
Zn675       O686   2.016       .  S
Zn676       O681   2.015       .  S
Zn676       O684   2.016       .  S
Zn676       O687   1.964       .  S
Zn676       O678   1.950   1_455  S
Zn677       O685   1.963       .  S
Zn677       O688   2.018       .  S
Zn677       O689   2.017       .  S
Zn677      O1066   1.950       .  S
O678      Zn1450   1.951       .  S
O678      Zn1065   1.950   1_565  S
O679       C1467   1.268       .  A
O681        C693   1.272   1_455  A
O683       C1469   1.272       .  A
O684        C692   1.272   1_565  A
O685       C1082   1.268       .  A
O686        C695   1.272   1_455  A
O687        C694   1.268   1_455  A
O688       C1471   1.272       .  A
O690        C696   1.272   1_565  A
C691        C769   1.401       .  S
C691       O1455   1.268       .  A
C692        C754   1.482       .  S
C693       O1459   1.272       .  A
C694        C771   1.402       .  S
C694       O1073   1.268   1_565  A
C695       O1464   1.272       .  A
C696        C752   1.483       .  S
N697        H729   1.039       .  S
N697        C702   1.358   1_565  A
N697        C701   1.353   1_565  A
N698        C705   1.352   1_545  A
N698        C706   1.356   1_545  A
N699        H730   1.039       .  S
N699        C704   1.353   1_565  A
N699        C703   1.358   1_565  A
N700        C707   1.355       .  A
N700        C708   1.352       .  A
C701        C709   1.389       .  A
C701        C717   1.420   1_545  A
C702        C718   1.417   1_545  A
C702        C710   1.386       .  A
C703        C711   1.386       .  A
C703        C720   1.417   1_545  A
C704        C712   1.389       .  A
C705        C713   1.388       .  A
C706        C720   1.415       .  A
C706        C714   1.385       .  A
C707        C715   1.385       .  A
C707        C718   1.415       .  A
C708        C716   1.389       .  A
C708        C719   1.418       .  A
C709        C710   1.377       .  A
C709        H721   1.082       .  S
C710        H722   1.083       .  S
C711        C712   1.377       .  A
C711        H723   1.083       .  S
C712        H724   1.082       .  S
C713        C714   1.374       .  A
C713        H725   1.082       .  S
C714        H726   1.082       .  S
C715        C716   1.374       .  A
C715        H727   1.082       .  S
C716        H728   1.082       .  S
C718        C767   1.466       .  S
C720        C765   1.466       .  S
N731        H763   1.039       .  S
N731        C736   1.353   1_545  A
N731        C735   1.358   1_545  A
N732        C739   1.355       .  A
N732        C740   1.352       .  A
N733        H764   1.039       .  S
N733        C738   1.358   1_545  A
N733        C737   1.353   1_545  A
N734        C741   1.352   1_565  A
N734        C742   1.356   1_565  A
C735        C743   1.386       .  A
C735        C751   1.417   1_565  A
C736        C752   1.420   1_565  A
C736        C744   1.389       .  A
C737        C745   1.389       .  A
C737        C754   1.420   1_565  A
C738        C753   1.417   1_565  A
C738        C746   1.386       .  A
C739        C751   1.414       .  A
C739        C747   1.385       .  A
C740        C754   1.418       .  A
C740        C748   1.389       .  A
C741        C749   1.388       .  A
C741        C752   1.419       .  A
C742        C750   1.385       .  A
C742        C753   1.415       .  A
C743        C744   1.377       .  A
C743        H755   1.083       .  S
C744        H756   1.082       .  S
C745        C746   1.377       .  A
C745        H757   1.082       .  S
C746        H758   1.083       .  S
C747        C748   1.374       .  A
C747        H759   1.082       .  S
C748        H760   1.082       .  S
C749        C750   1.374       .  A
C749        H761   1.082       .  S
C750        H762   1.082       .  S
C751        C768   1.466       .  S
C753        C766   1.466       .  S
C765        C766   1.217   1_565  T
C767        C768   1.216   1_565  T
C769        C770   1.186       .  T
C771        C772   1.186       .  T
C773        C774   1.216       .  T
C774       C1381   1.466       .  S
C775        C776   1.216       .  T
N777        H809   1.039       .  S
N777        C781   1.358       .  A
N778        C785   1.356       .  A
N778        C786   1.352       .  A
N779        H810   1.039       .  S
N779        C783   1.353       .  A
N780        C787   1.352       .  A
N780        C788   1.356       .  A
C781        C789   1.386       .  A
C781        C797   1.417       .  A
C782        C798   1.420   1_654  A
C782        C790   1.389       .  A
C783        C791   1.389       .  A
C783        C994   1.420       .  A
C784        C799   1.417   1_655  A
C784        C792   1.386       .  A
C785        C797   1.415       .  A
C785        C793   1.385       .  A
C786        C800   1.419       .  A
C786        C794   1.389       .  A
C787        C795   1.389       .  A
C787        C992   1.418       .  A
C788        C796   1.385       .  A
C788        C799   1.414       .  A
C789        H801   1.082       .  S
C790        H802   1.082       .  S
C791        H803   1.082       .  S
C792        H804   1.082       .  S
C793        C794   1.374       .  A
C793        H805   1.082       .  S
C794        H806   1.082       .  S
C795        C796   1.374       .  A
C795        H807   1.082       .  S
C796        H808   1.082       .  S
C797        C970   1.466       .  S
C798        C981   1.418       .  A
C800        C977   1.420   1_554  A
C800        C862   1.483   1_554  S
N811        H843   1.039       .  S
N811        C816   1.358       .  A
N811        C815   1.354       .  A
N812        C819   1.352       .  A
N812        C820   1.356       .  A
N813        H844   1.039       .  S
N813        C818   1.353       .  A
N813        C817   1.358       .  A
N814        C821   1.356       .  A
N814        C822   1.352       .  A
C815        C823   1.389       .  A
C815        C831   1.420       .  A
C816        C832   1.417       .  A
C816        C824   1.386       .  A
C817        C825   1.386       .  A
C817        C834   1.417       .  A
C818        C833   1.420       .  A
C818        C826   1.389       .  A
C819        C831   1.418       .  A
C819        C827   1.389       .  A
C820        C834   1.415       .  A
C820        C828   1.385       .  A
C821        C829   1.385       .  A
C821        C832   1.415       .  A
C822        C830   1.389       .  A
C822        C833   1.419       .  A
C823        C824   1.377       .  A
C823        H835   1.082       .  S
C824        H836   1.082       .  S
C825        C826   1.377       .  A
C825        H837   1.082       .  S
C826        H838   1.082       .  S
C827        C828   1.374       .  A
C827        H839   1.082       .  S
C828        H840   1.082       .  S
C829        C830   1.374       .  A
C829        H841   1.082       .  S
C830        H842   1.082       .  S
C831        C887   1.483       .  S
C832        C969   1.466       .  S
C833        C889   1.483       .  S
C834        C967   1.466       .  S
Zn845       O850   2.018       .  S
Zn845       O854   2.017       .  S
Zn845       O861   1.963       .  S
Zn846       O851   1.962       .  S
Zn846       O853   2.016       .  S
Zn846       O857   2.016       .  S
Zn846      O1043   1.950       .  S
Zn847       O852   2.018       .  S
Zn847       O855   1.965       .  S
Zn847       O858   2.019       .  S
Zn848       O856   2.015       .  S
Zn848       O859   2.016       .  S
Zn848       O860   1.964       .  S
Zn848      O1237   1.950   1_544  S
O849      Zn1040   1.950       .  S
O849      Zn1236   1.950   1_556  S
O851        C863   1.268       .  A
O852       C1446   1.272   1_545  A
O853       C1056   1.272       .  A
O854        C864   1.272   1_554  A
O856        C865   1.272   1_554  A
O857       C1060   1.272       .  A
O859       C1254   1.272   1_545  A
O860       C1255   1.268       .  A
C862       O1047   1.272       .  A
C863        C964   1.401       .  S
C864        C911   1.483       .  S
C864       O1434   1.272       .  A
C866        C913   1.482       .  S
C866       O1051   1.272   1_554  A
C866       O1247   1.272       .  A
C867        C966   1.402       .  S
C867       O1248   1.268       .  A
Zn868       O873   1.965       .  S
Zn868       O877   2.019       .  S
Zn868       O884   2.019       .  S
Zn869       O874   2.016       .  S
Zn869       O876   1.962       .  S
Zn869       O880   2.016       .  S
Zn869      O1260   1.950   1_545  S
Zn870       O875   2.015       .  S
Zn870       O878   2.016       .  S
Zn870       O881   1.964       .  S
Zn870       O872   1.950       .  S
Zn871       O879   1.963       .  S
Zn871       O882   2.018       .  S
Zn871       O883   2.017       .  S
O872      Zn1257   1.950       .  S
O874       C1274   1.272       .  A
O875        C887   1.272       .  A
O876       C1273   1.268   1_545  A
O878        C886   1.272       .  A
O880        C889   1.272       .  A
O881        C888   1.268       .  A
O883       C1278   1.272       .  A
O884        C890   1.272       .  A
C885        C963   1.401       .  S
C885       O1264   1.268       .  A
C886        C948   1.482       .  S
C886       O1262   1.272       .  A
C888        C965   1.402       .  S
C890        C946   1.483       .  S
C890       O1271   1.272       .  A
N891        H923   1.039       .  S
N891        C896   1.358       .  A
N891        C895   1.353       .  A
N892        C899   1.352       .  A
N892        C900   1.356       .  A
N893        H924   1.039       .  S
N893        C898   1.353       .  A
N893        C897   1.358       .  A
N894        C901   1.355       .  A
N894        C902   1.352       .  A
C895        C903   1.389       .  A
C895        C911   1.420   1_554  A
C896        C912   1.417       .  A
C896        C904   1.386       .  A
C897        C905   1.386       .  A
C897        C914   1.417       .  A
C898       C1107   1.420       .  A
C898        C906   1.389       .  A
C899       C1105   1.419       .  A
C899        C907   1.388       .  A
C900        C914   1.415       .  A
C900        C908   1.385       .  A
C901        C909   1.385       .  A
C901        C912   1.415       .  A
C902        C910   1.389       .  A
C902        C913   1.418       .  A
C903        C904   1.377       .  A
C903        H915   1.082       .  S
C904        H916   1.083       .  S
C905        C906   1.377       .  A
C905        H917   1.083       .  S
C906        H918   1.082       .  S
C907        C908   1.374       .  A
C907        H919   1.082       .  S
C908        H920   1.082       .  S
C909        C910   1.374       .  A
C909        H921   1.082       .  S
C910        H922   1.082       .  S
C911       C1093   1.419       .  A
C912        C961   1.466       .  S
C913       C1092   1.420   1_554  A
C914        C959   1.466       .  S
N925        H957   1.039       .  S
N925        C930   1.353       .  A
N925        C929   1.358       .  A
N926        C933   1.355       .  A
N926        C934   1.352       .  A
N927        H958   1.039       .  S
N927        C932   1.358       .  A
N927        C931   1.353       .  A
N928        C935   1.352       .  A
N928        C936   1.356       .  A
C929        C937   1.386       .  A
C929        C945   1.417       .  A
C930        C946   1.420       .  A
C930        C938   1.389       .  A
C931        C939   1.389       .  A
C931        C948   1.420       .  A
C932        C947   1.417       .  A
C932        C940   1.386       .  A
C933        C945   1.414       .  A
C933        C941   1.385       .  A
C934        C948   1.418       .  A
C934        C942   1.389       .  A
C935        C943   1.388       .  A
C935        C946   1.419       .  A
C936        C944   1.385       .  A
C936        C947   1.415       .  A
C937        C938   1.377       .  A
C937        H949   1.083       .  S
C938        H950   1.082       .  S
C939        C940   1.377       .  A
C939        H951   1.082       .  S
C940        H952   1.083       .  S
C941        C942   1.374       .  A
C941        H953   1.082       .  S
C942        H954   1.082       .  S
C943        C944   1.374       .  A
C943        H955   1.082       .  S
C944        H956   1.082       .  S
C945        C962   1.466       .  S
C947        C960   1.466       .  S
C959        C960   1.217       .  T
C961        C962   1.216       .  T
C963        C964   1.186       .  T
C965        C966   1.186       .  T
C967        C968   1.216       .  T
C969        C970   1.216       .  T
N971       H1003   1.039       .  S
N971        C975   1.358       .  A
N972        C979   1.356       .  A
N972        C980   1.352       .  A
N973       H1004   1.039       .  S
N973        C977   1.353       .  A
N974        C981   1.352       .  A
N974        C982   1.356       .  A
C975        C983   1.386       .  A
C975        C991   1.417       .  A
C976        C992   1.420   1_655  A
C976        C984   1.389       .  A
C977        C985   1.389       .  A
C978        C993   1.417   1_655  A
C978        C986   1.386       .  A
C979        C991   1.415       .  A
C979        C987   1.385       .  A
C980        C994   1.419       .  A
C980        C988   1.389       .  A
C981        C989   1.389       .  A
C982        C990   1.385       .  A
C982        C993   1.415       .  A
C983        H995   1.082       .  S
C984        H996   1.082       .  S
C985        H997   1.082       .  S
C986        H998   1.082       .  S
C987        C988   1.374       .  A
C987        H999   1.082       .  S
C988       H1000   1.082       .  S
C989        C990   1.374       .  A
C989       H1001   1.082       .  S
C990       H1002   1.082       .  S
C991       C1164   1.466       .  S
C994       C1056   1.483       .  S
N1005      H1037   1.039       .  S
N1005      C1010   1.358       .  A
N1005      C1009   1.354       .  A
N1006      C1013   1.352       .  A
N1006      C1014   1.356       .  A
N1007      H1038   1.039       .  S
N1007      C1012   1.353       .  A
N1007      C1011   1.358       .  A
N1008      C1015   1.356       .  A
N1008      C1016   1.352       .  A
C1009      C1017   1.389       .  A
C1009      C1025   1.420       .  A
C1010      C1026   1.417       .  A
C1010      C1018   1.386       .  A
C1011      C1019   1.386       .  A
C1011      C1028   1.417       .  A
C1012      C1027   1.420       .  A
C1012      C1020   1.389       .  A
C1013      C1025   1.418       .  A
C1013      C1021   1.389       .  A
C1014      C1028   1.415       .  A
C1014      C1022   1.385       .  A
C1015      C1023   1.385       .  A
C1015      C1026   1.415       .  A
C1016      C1024   1.389       .  A
C1016      C1027   1.419       .  A
C1017      C1018   1.377       .  A
C1017      H1029   1.082       .  S
C1018      H1030   1.082       .  S
C1019      C1020   1.377       .  A
C1019      H1031   1.082       .  S
C1020      H1032   1.082       .  S
C1021      C1022   1.374       .  A
C1021      H1033   1.082       .  S
C1022      H1034   1.082       .  S
C1023      C1024   1.374       .  A
C1023      H1035   1.082       .  S
C1024      H1036   1.082       .  S
C1025      C1081   1.483       .  S
C1026      C1163   1.466       .  S
C1027      C1083   1.483       .  S
C1028      C1161   1.466       .  S
Zn1039     O1044   2.018       .  S
Zn1039     O1048   2.017       .  S
Zn1039     O1055   1.963       .  S
Zn1040     O1045   1.962       .  S
Zn1040     O1047   2.016       .  S
Zn1040     O1051   2.016       .  S
Zn1041     O1046   2.018       .  S
Zn1041     O1049   1.965       .  S
Zn1041     O1052   2.019       .  S
Zn1042     O1050   2.015       .  S
Zn1042     O1053   2.016       .  S
Zn1042     O1054   1.964       .  S
Zn1042     O1431   1.950   1_545  S
O1043     Zn1430   1.950       .  S
O1045      C1057   1.268       .  A
O1046      C1252   1.272   1_545  A
O1048      C1058   1.272       .  A
O1050      C1059   1.272       .  A
O1053      C1448   1.272   1_545  A
O1054      C1449   1.268       .  A
C1057      C1158   1.401       .  S
C1058      C1105   1.483       .  S
C1058      O1240   1.272       .  A
C1060      C1107   1.482       .  S
C1060      O1441   1.272       .  A
C1061      C1160   1.402       .  S
C1061      O1442   1.268       .  A
Zn1062     O1067   1.965       .  S
Zn1062     O1071   2.019       .  S
Zn1062     O1078   2.019       .  S
Zn1063     O1068   2.016       .  S
Zn1063     O1070   1.962       .  S
Zn1063     O1074   2.016       .  S
Zn1063     O1454   1.950   1_545  S
Zn1064     O1069   2.015       .  S
Zn1064     O1072   2.016       .  S
Zn1064     O1075   1.964       .  S
Zn1064     O1066   1.950       .  S
Zn1065     O1073   1.963       .  S
Zn1065     O1076   2.018       .  S
Zn1065     O1077   2.017       .  S
O1066     Zn1451   1.950       .  S
O1068      C1468   1.272       .  A
O1069      C1081   1.272       .  A
O1070      C1467   1.268   1_545  A
O1072      C1080   1.272       .  A
O1074      C1083   1.272       .  A
O1075      C1082   1.268       .  A
O1077      C1472   1.272       .  A
O1078      C1084   1.272       .  A
C1079      C1157   1.401       .  S
C1079      O1458   1.268       .  A
C1080      C1142   1.482       .  S
C1080      O1456   1.272       .  A
C1082      C1159   1.402       .  S
C1084      C1140   1.483       .  S
C1084      O1465   1.272       .  A
N1085      H1117   1.039       .  S
N1085      C1090   1.358       .  A
N1085      C1089   1.353       .  A
N1086      C1093   1.352       .  A
N1086      C1094   1.356       .  A
N1087      H1118   1.039       .  S
N1087      C1092   1.353       .  A
N1087      C1091   1.358       .  A
N1088      C1095   1.355       .  A
N1088      C1096   1.352       .  A
C1089      C1097   1.389       .  A
C1089      C1105   1.420       .  A
C1090      C1106   1.417       .  A
C1090      C1098   1.386       .  A
C1091      C1099   1.386       .  A
C1091      C1108   1.417       .  A
C1092      C1100   1.389       .  A
C1093      C1101   1.388       .  A
C1094      C1108   1.415       .  A
C1094      C1102   1.385       .  A
C1095      C1103   1.385       .  A
C1095      C1106   1.415       .  A
C1096      C1104   1.389       .  A
C1096      C1107   1.418       .  A
C1097      C1098   1.377       .  A
C1097      H1109   1.082       .  S
C1098      H1110   1.083       .  S
C1099      C1100   1.377       .  A
C1099      H1111   1.083       .  S
C1100      H1112   1.082       .  S
C1101      C1102   1.374       .  A
C1101      H1113   1.082       .  S
C1102      H1114   1.082       .  S
C1103      C1104   1.374       .  A
C1103      H1115   1.082       .  S
C1104      H1116   1.082       .  S
C1106      C1155   1.466       .  S
C1108      C1153   1.466       .  S
N1119      H1151   1.039       .  S
N1119      C1124   1.353       .  A
N1119      C1123   1.358       .  A
N1120      C1127   1.355       .  A
N1120      C1128   1.352       .  A
N1121      H1152   1.039       .  S
N1121      C1126   1.358       .  A
N1121      C1125   1.353       .  A
N1122      C1129   1.352       .  A
N1122      C1130   1.356       .  A
C1123      C1131   1.386       .  A
C1123      C1139   1.417       .  A
C1124      C1140   1.420       .  A
C1124      C1132   1.389       .  A
C1125      C1133   1.389       .  A
C1125      C1142   1.420       .  A
C1126      C1141   1.417       .  A
C1126      C1134   1.386       .  A
C1127      C1139   1.414       .  A
C1127      C1135   1.385       .  A
C1128      C1142   1.418       .  A
C1128      C1136   1.389       .  A
C1129      C1137   1.388       .  A
C1129      C1140   1.419       .  A
C1130      C1138   1.385       .  A
C1130      C1141   1.415       .  A
C1131      C1132   1.377       .  A
C1131      H1143   1.083       .  S
C1132      H1144   1.082       .  S
C1133      C1134   1.377       .  A
C1133      H1145   1.082       .  S
C1134      H1146   1.083       .  S
C1135      C1136   1.374       .  A
C1135      H1147   1.082       .  S
C1136      H1148   1.082       .  S
C1137      C1138   1.374       .  A
C1137      H1149   1.082       .  S
C1138      H1150   1.082       .  S
C1139      C1156   1.466       .  S
C1141      C1154   1.466       .  S
C1153      C1154   1.217       .  T
C1155      C1156   1.216       .  T
C1157      C1158   1.186       .  T
C1159      C1160   1.186       .  T
C1161      C1162   1.216       .  T
C1163      C1164   1.216       .  T
N1165      H1197   1.039       .  S
N1165      C1169   1.358       .  A
N1166      C1173   1.356       .  A
N1166      C1174   1.352       .  A
N1167      H1198   1.039       .  S
N1167      C1171   1.353       .  A
N1168      C1175   1.352       .  A
N1168      C1176   1.356       .  A
C1169      C1177   1.386       .  A
C1169      C1185   1.417       .  A
C1170      C1186   1.420   1_654  A
C1170      C1178   1.389       .  A
C1171      C1179   1.389       .  A
C1171      C1382   1.420       .  A
C1172      C1187   1.417   1_655  A
C1172      C1180   1.386       .  A
C1173      C1185   1.415       .  A
C1173      C1181   1.385       .  A
C1174      C1188   1.419       .  A
C1174      C1182   1.389       .  A
C1175      C1183   1.389       .  A
C1175      C1380   1.418       .  A
C1176      C1184   1.385       .  A
C1176      C1187   1.414       .  A
C1177      H1189   1.082       .  S
C1178      H1190   1.082       .  S
C1179      H1191   1.082       .  S
C1180      H1192   1.082       .  S
C1181      C1182   1.374       .  A
C1181      H1193   1.082       .  S
C1182      H1194   1.082       .  S
C1183      C1184   1.374       .  A
C1183      H1195   1.082       .  S
C1184      H1196   1.082       .  S
C1185      C1358   1.466       .  S
C1186      C1369   1.418       .  A
C1188      C1365   1.420   1_554  A
C1188      C1250   1.483   1_554  S
N1199      H1231   1.039       .  S
N1199      C1204   1.358       .  A
N1199      C1203   1.354       .  A
N1200      C1207   1.352       .  A
N1200      C1208   1.356       .  A
N1201      H1232   1.039       .  S
N1201      C1206   1.353       .  A
N1201      C1205   1.358       .  A
N1202      C1209   1.356       .  A
N1202      C1210   1.352       .  A
C1203      C1211   1.389       .  A
C1203      C1219   1.420       .  A
C1204      C1220   1.417       .  A
C1204      C1212   1.386       .  A
C1205      C1213   1.386       .  A
C1205      C1222   1.417       .  A
C1206      C1221   1.420       .  A
C1206      C1214   1.389       .  A
C1207      C1219   1.418       .  A
C1207      C1215   1.389       .  A
C1208      C1222   1.415       .  A
C1208      C1216   1.385       .  A
C1209      C1217   1.385       .  A
C1209      C1220   1.415       .  A
C1210      C1218   1.389       .  A
C1210      C1221   1.419       .  A
C1211      C1212   1.377       .  A
C1211      H1223   1.082       .  S
C1212      H1224   1.082       .  S
C1213      C1214   1.377       .  A
C1213      H1225   1.082       .  S
C1214      H1226   1.082       .  S
C1215      C1216   1.374       .  A
C1215      H1227   1.082       .  S
C1216      H1228   1.082       .  S
C1217      C1218   1.374       .  A
C1217      H1229   1.082       .  S
C1218      H1230   1.082       .  S
C1219      C1275   1.483       .  S
C1220      C1357   1.466       .  S
C1221      C1277   1.483       .  S
C1222      C1355   1.466       .  S
Zn1233     O1238   2.018       .  S
Zn1233     O1242   2.017       .  S
Zn1233     O1249   1.963       .  S
Zn1234     O1239   1.962       .  S
Zn1234     O1241   2.016       .  S
Zn1234     O1245   2.016       .  S
Zn1234     O1431   1.950       .  S
Zn1235     O1240   2.018       .  S
Zn1235     O1243   1.965       .  S
Zn1235     O1246   2.019       .  S
Zn1236     O1244   2.015       .  S
Zn1236     O1247   2.016       .  S
Zn1236     O1248   1.964       .  S
O1237     Zn1428   1.950       .  S
O1239      C1251   1.268       .  A
O1241      C1444   1.272       .  A
O1242      C1252   1.272   1_554  A
O1244      C1253   1.272   1_554  A
O1245      C1448   1.272       .  A
C1250      O1435   1.272       .  A
C1251      C1352   1.401       .  S
C1252      C1299   1.483       .  S
C1254      C1301   1.482       .  S
C1254      O1439   1.272   1_554  A
C1255      C1354   1.402   1_545  S
Zn1256     O1261   1.965       .  S
Zn1256     O1265   2.019       .  S
Zn1256     O1272   2.019       .  S
Zn1257     O1262   2.016       .  S
Zn1257     O1264   1.962       .  S
Zn1257     O1268   2.016       .  S
Zn1258     O1263   2.015       .  S
Zn1258     O1266   2.016       .  S
Zn1258     O1269   1.964       .  S
Zn1258     O1260   1.950       .  S
Zn1259     O1267   1.963       .  S
Zn1259     O1270   2.018       .  S
Zn1259     O1271   2.017       .  S
O1263      C1275   1.272       .  A
O1266      C1274   1.272   1_565  A
O1268      C1277   1.272       .  A
O1269      C1276   1.268       .  A
O1272      C1278   1.272   1_565  A
C1273      C1351   1.401       .  S
C1274      C1336   1.482       .  S
C1276      C1353   1.402       .  S
C1278      C1334   1.483       .  S
N1279      H1311   1.039       .  S
N1279      C1284   1.358   1_565  A
N1279      C1283   1.353   1_565  A
N1280      C1287   1.352   1_545  A
N1280      C1288   1.356   1_545  A
N1281      H1312   1.039       .  S
N1281      C1286   1.353   1_565  A
N1281      C1285   1.358   1_565  A
N1282      C1289   1.355       .  A
N1282      C1290   1.352       .  A
C1283      C1291   1.389       .  A
C1283      C1299   1.420   1_544  A
C1284      C1300   1.417   1_545  A
C1284      C1292   1.386       .  A
C1285      C1293   1.386       .  A
C1285      C1302   1.417   1_545  A
C1286      C1495   1.420   1_545  A
C1286      C1294   1.389       .  A
C1287      C1493   1.419       .  A
C1287      C1295   1.388       .  A
C1288      C1302   1.415       .  A
C1288      C1296   1.385       .  A
C1289      C1297   1.385       .  A
C1289      C1300   1.415       .  A
C1290      C1298   1.389       .  A
C1290      C1301   1.418       .  A
C1291      C1292   1.377       .  A
C1291      H1303   1.082       .  S
C1292      H1304   1.083       .  S
C1293      C1294   1.377       .  A
C1293      H1305   1.083       .  S
C1294      H1306   1.082       .  S
C1295      C1296   1.374       .  A
C1295      H1307   1.082       .  S
C1296      H1308   1.082       .  S
C1297      C1298   1.374       .  A
C1297      H1309   1.082       .  S
C1298      H1310   1.082       .  S
C1299      C1481   1.419       .  A
C1300      C1349   1.466       .  S
C1301      C1480   1.420   1_564  A
C1302      C1347   1.466       .  S
N1313      H1345   1.039       .  S
N1313      C1318   1.353   1_545  A
N1313      C1317   1.358   1_545  A
N1314      C1321   1.355       .  A
N1314      C1322   1.352       .  A
N1315      H1346   1.039       .  S
N1315      C1320   1.358   1_545  A
N1315      C1319   1.353   1_545  A
N1316      C1323   1.352   1_565  A
N1316      C1324   1.356   1_565  A
C1317      C1325   1.386       .  A
C1317      C1333   1.417   1_565  A
C1318      C1334   1.420   1_565  A
C1318      C1326   1.389       .  A
C1319      C1327   1.389       .  A
C1319      C1336   1.420   1_565  A
C1320      C1335   1.417   1_565  A
C1320      C1328   1.386       .  A
C1321      C1333   1.414       .  A
C1321      C1329   1.385       .  A
C1322      C1336   1.418       .  A
C1322      C1330   1.389       .  A
C1323      C1331   1.388       .  A
C1323      C1334   1.419       .  A
C1324      C1332   1.385       .  A
C1324      C1335   1.415       .  A
C1325      C1326   1.377       .  A
C1325      H1337   1.083       .  S
C1326      H1338   1.082       .  S
C1327      C1328   1.377       .  A
C1327      H1339   1.082       .  S
C1328      H1340   1.083       .  S
C1329      C1330   1.374       .  A
C1329      H1341   1.082       .  S
C1330      H1342   1.082       .  S
C1331      C1332   1.374       .  A
C1331      H1343   1.082       .  S
C1332      H1344   1.082       .  S
C1333      C1350   1.466       .  S
C1335      C1348   1.466       .  S
C1347      C1348   1.217   1_565  T
C1349      C1350   1.216   1_565  T
C1351      C1352   1.186       .  T
C1353      C1354   1.186       .  T
C1355      C1356   1.216       .  T
C1357      C1358   1.216       .  T
N1359      H1391   1.039       .  S
N1359      C1363   1.358       .  A
N1360      C1367   1.356       .  A
N1360      C1368   1.352       .  A
N1361      H1392   1.039       .  S
N1361      C1365   1.353       .  A
N1362      C1369   1.352       .  A
N1362      C1370   1.356       .  A
C1363      C1371   1.386       .  A
C1363      C1379   1.417       .  A
C1364      C1380   1.420   1_655  A
C1364      C1372   1.389       .  A
C1365      C1373   1.389       .  A
C1366      C1381   1.417   1_655  A
C1366      C1374   1.386       .  A
C1367      C1379   1.415       .  A
C1367      C1375   1.385       .  A
C1368      C1382   1.419       .  A
C1368      C1376   1.389       .  A
C1369      C1377   1.389       .  A
C1370      C1378   1.385       .  A
C1370      C1381   1.415       .  A
C1371      H1383   1.082       .  S
C1372      H1384   1.082       .  S
C1373      H1385   1.082       .  S
C1374      H1386   1.082       .  S
C1375      C1376   1.374       .  A
C1375      H1387   1.082       .  S
C1376      H1388   1.082       .  S
C1377      C1378   1.374       .  A
C1377      H1389   1.082       .  S
C1378      H1390   1.082       .  S
C1379      C1552   1.466       .  S
C1382      C1444   1.483       .  S
N1393      H1425   1.039       .  S
N1393      C1398   1.358       .  A
N1393      C1397   1.354       .  A
N1394      C1401   1.352       .  A
N1394      C1402   1.356       .  A
N1395      H1426   1.039       .  S
N1395      C1400   1.353       .  A
N1395      C1399   1.358       .  A
N1396      C1403   1.356       .  A
N1396      C1404   1.352       .  A
C1397      C1405   1.389       .  A
C1397      C1413   1.420       .  A
C1398      C1414   1.417       .  A
C1398      C1406   1.386       .  A
C1399      C1407   1.386       .  A
C1399      C1416   1.417       .  A
C1400      C1415   1.420       .  A
C1400      C1408   1.389       .  A
C1401      C1413   1.418       .  A
C1401      C1409   1.389       .  A
C1402      C1416   1.415       .  A
C1402      C1410   1.385       .  A
C1403      C1411   1.385       .  A
C1403      C1414   1.415       .  A
C1404      C1412   1.389       .  A
C1404      C1415   1.419       .  A
C1405      C1406   1.377       .  A
C1405      H1417   1.082       .  S
C1406      H1418   1.082       .  S
C1407      C1408   1.377       .  A
C1407      H1419   1.082       .  S
C1408      H1420   1.082       .  S
C1409      C1410   1.374       .  A
C1409      H1421   1.082       .  S
C1410      H1422   1.082       .  S
C1411      C1412   1.374       .  A
C1411      H1423   1.082       .  S
C1412      H1424   1.082       .  S
C1413      C1469   1.483       .  S
C1414      C1551   1.466       .  S
C1415      C1471   1.483       .  S
C1416      C1549   1.466       .  S
Zn1427     O1432   2.018       .  S
Zn1427     O1436   2.017       .  S
Zn1427     O1443   1.963       .  S
Zn1428     O1433   1.962       .  S
Zn1428     O1435   2.016       .  S
Zn1428     O1439   2.016       .  S
Zn1429     O1434   2.018       .  S
Zn1429     O1437   1.965       .  S
Zn1429     O1440   2.019       .  S
Zn1430     O1438   2.015       .  S
Zn1430     O1441   2.016       .  S
Zn1430     O1442   1.964       .  S
O1433      C1445   1.268       .  A
O1436      C1446   1.272       .  A
O1438      C1447   1.272       .  A
C1445      C1546   1.401       .  S
C1446      C1493   1.483       .  S
C1448      C1495   1.482       .  S
C1449      C1548   1.402   1_545  S
Zn1450     O1455   1.965       .  S
Zn1450     O1459   2.019       .  S
Zn1450     O1466   2.019       .  S
Zn1451     O1456   2.016       .  S
Zn1451     O1458   1.962       .  S
Zn1451     O1462   2.016       .  S
Zn1452     O1457   2.015       .  S
Zn1452     O1460   2.016       .  S
Zn1452     O1463   1.964       .  S
Zn1452     O1454   1.950       .  S
Zn1453     O1461   1.963       .  S
Zn1453     O1464   2.018       .  S
Zn1453     O1465   2.017       .  S
O1457      C1469   1.272       .  A
O1460      C1468   1.272   1_565  A
O1462      C1471   1.272       .  A
O1463      C1470   1.268       .  A
O1466      C1472   1.272   1_565  A
C1467      C1545   1.401       .  S
C1468      C1530   1.482       .  S
C1470      C1547   1.402       .  S
C1472      C1528   1.483       .  S
N1473      H1505   1.039       .  S
N1473      C1478   1.358   1_565  A
N1473      C1477   1.353   1_565  A
N1474      C1481   1.352   1_545  A
N1474      C1482   1.356   1_545  A
N1475      H1506   1.039       .  S
N1475      C1480   1.353   1_565  A
N1475      C1479   1.358   1_565  A
N1476      C1483   1.355       .  A
N1476      C1484   1.352       .  A
C1477      C1485   1.389       .  A
C1477      C1493   1.420   1_545  A
C1478      C1494   1.417   1_545  A
C1478      C1486   1.386       .  A
C1479      C1487   1.386       .  A
C1479      C1496   1.417   1_545  A
C1480      C1488   1.389       .  A
C1481      C1489   1.388       .  A
C1482      C1496   1.415       .  A
C1482      C1490   1.385       .  A
C1483      C1491   1.385       .  A
C1483      C1494   1.415       .  A
C1484      C1492   1.389       .  A
C1484      C1495   1.418       .  A
C1485      C1486   1.377       .  A
C1485      H1497   1.082       .  S
C1486      H1498   1.083       .  S
C1487      C1488   1.377       .  A
C1487      H1499   1.083       .  S
C1488      H1500   1.082       .  S
C1489      C1490   1.374       .  A
C1489      H1501   1.082       .  S
C1490      H1502   1.082       .  S
C1491      C1492   1.374       .  A
C1491      H1503   1.082       .  S
C1492      H1504   1.082       .  S
C1494      C1543   1.466       .  S
C1496      C1541   1.466       .  S
N1507      H1539   1.039       .  S
N1507      C1512   1.353   1_545  A
N1507      C1511   1.358   1_545  A
N1508      C1515   1.355       .  A
N1508      C1516   1.352       .  A
N1509      H1540   1.039       .  S
N1509      C1514   1.358   1_545  A
N1509      C1513   1.353   1_545  A
N1510      C1517   1.352   1_565  A
N1510      C1518   1.356   1_565  A
C1511      C1519   1.386       .  A
C1511      C1527   1.417   1_565  A
C1512      C1528   1.420   1_565  A
C1512      C1520   1.389       .  A
C1513      C1521   1.389       .  A
C1513      C1530   1.420   1_565  A
C1514      C1529   1.417   1_565  A
C1514      C1522   1.386       .  A
C1515      C1527   1.414       .  A
C1515      C1523   1.385       .  A
C1516      C1530   1.418       .  A
C1516      C1524   1.389       .  A
C1517      C1525   1.388       .  A
C1517      C1528   1.419       .  A
C1518      C1526   1.385       .  A
C1518      C1529   1.415       .  A
C1519      C1520   1.377       .  A
C1519      H1531   1.083       .  S
C1520      H1532   1.082       .  S
C1521      C1522   1.377       .  A
C1521      H1533   1.082       .  S
C1522      H1534   1.083       .  S
C1523      C1524   1.374       .  A
C1523      H1535   1.082       .  S
C1524      H1536   1.082       .  S
C1525      C1526   1.374       .  A
C1525      H1537   1.082       .  S
C1526      H1538   1.082       .  S
C1527      C1544   1.466       .  S
C1529      C1542   1.466       .  S
C1541      C1542   1.217   1_565  T
C1543      C1544   1.216   1_565  T
C1545      C1546   1.186       .  T
C1547      C1548   1.186       .  T
C1549      C1550   1.216       .  T
C1551      C1552   1.216       .  T
