geometry optimzed in LAMMPS
_audit_creation_date              2020-11-30 
_audit_creation_method            'lammps2cif' 
_symmetry_space_group_name_H-M    'P1' 
_symmetry_Int_Tables_number       1 
_symmetry_cell_setting            triclinic 
loop_ 
_symmetry_equiv_pos_as_xyz 
  x,y,z 
_cell_length_a                    32.73241451 
_cell_length_b                    32.77852284135484 
_cell_length_c                    23.22412947405833 
_cell_angle_alpha                 89.48167803311274 
_cell_angle_beta                  90.11852466469071 
_cell_angle_gamma                 89.22767400328469 
loop_ 
_atom_site_label 
_atom_site_type_symbol 
_atom_site_fract_x 
_atom_site_fract_y 
_atom_site_fract_z 
_atom_site_charge 
C1          C  0.10950883  0.92896417  0.49365899    -0.01500
C2          C  0.82908754  0.81811460  0.49668800    -0.01500
C3          C  0.69925515  0.10053588  0.50889399    -0.01500
C4          C  0.98010579  0.21440135  0.49464364    -0.01500
C5          C  0.82396511  0.22866803  0.99184091    -0.01500
C6          C  0.71649888  0.94054234  0.00746311    -0.01500
C7          C  0.99072634  0.82774781  0.00329156    -0.01500
C8          C  0.10453264  0.11369675  0.98423301    -0.01500
C9          C  0.48677167  0.73264116  0.00184072    -0.01500
C10         C  0.21875634  0.60303339  0.00563775    -0.01500
C11         C  0.60816368  0.44702688  0.01346895    -0.01500
C12         C  0.33082217  0.31530892  0.00463091    -0.01500
O13         O  0.54429600  0.35165908  0.70588951    -0.56800
C14         C  0.50014648  0.30352001  0.57224761     0.75800
O15         O  0.53712504  0.22186182  0.65791559    -0.57900
C16         C  0.56188443  0.34385217  0.75330928     0.75800
C17         C  0.42481160  0.28209691  0.74622375     0.78200
Cd18       Cd  0.50728423  0.28445227  0.69647509     1.37500
O19         O  0.50908597  0.26706546  0.58586982    -0.56800
O20         O  0.44380911  0.24989713  0.73190245    -0.55600
C21         C  0.55590960  0.21086526  0.70319169     0.78200
O22         O  0.44340697  0.31489230  0.73788462    -0.58000
O23         O  0.49598983  0.32749381  0.61434235    -0.56400
O24         O  0.55488684  0.30897603  0.77457919    -0.56400
O25         O  0.55033401  0.23247642  0.74747798    -0.55600
O26         O  0.64704302  0.09589555  0.58643234    -0.56800
C27         C  0.71981619  0.18269496  0.73745223     0.75800
O28         O  0.59557446  0.16099335  0.65484347    -0.57900
C29         C  0.67808324  0.11328767  0.56569248     0.75800
C30         C  0.66642893  0.04394088  0.74301171     0.78200
Cd31       Cd  0.65827368  0.12646505  0.68863534     1.37500
O32         O  0.70325508  0.15499185  0.76721868    -0.56800
O33         O  0.69120810  0.07226709  0.75276320    -0.55600
C34         C  0.58598355  0.17739946  0.70178231     0.78200
O35         O  0.63765716  0.05305555  0.70853646    -0.58000
O36         O  0.70953721  0.18391465  0.68474586    -0.56400
O37         O  0.69591012  0.13686118  0.60044650    -0.56400
O38         O  0.60632716  0.16613363  0.74546811    -0.55600
O39         O  0.84167203  0.26539481  0.90302428    -0.56800
C40         C  0.74854224  0.21262982  0.76291891     0.75800
O41         O  0.77812081  0.34043298  0.85752080    -0.57900
C42         C  0.81389572  0.25512492  0.93804318     0.75800
C43         C  0.88381794  0.27541932  0.75625527     0.78200
Cd44       Cd  0.80220368  0.27526482  0.81525760     1.37500
O45         O  0.76193327  0.24272053  0.73468891    -0.56800
O46         O  0.86710019  0.24346123  0.77526079    -0.55600
C47         C  0.75513294  0.34977751  0.81557466     0.78200
O48         O  0.86351647  0.30811844  0.76400893    -0.58000
O49         O  0.76043730  0.21026055  0.81480159    -0.56400
O50         O  0.77794261  0.25919195  0.91835031    -0.56400
O51         O  0.75767625  0.32756087  0.77156799    -0.55600
O52         O  0.59586263  0.40855567  0.76168635    -0.56800
C53         C  0.62773654  0.43981451  0.95436206     0.75800
O54         O  0.69822134  0.38705479  0.77926610    -0.57900
C55         C  0.58977411  0.37310964  0.78160900     0.75800
C56         C  0.65868751  0.51012501  0.77794654     0.78200
Cd57       Cd  0.65046792  0.42875580  0.83336763     1.37500
O58         O  0.66251536  0.42395225  0.94475095    -0.56800
O59         O  0.63135481  0.50236542  0.81456711    -0.55600
C60         C  0.72353052  0.38147818  0.81985078     0.78200
O61         O  0.68358791  0.48122091  0.76795914    -0.58000
O62         O  0.60737134  0.44987077  0.90994497    -0.56400
O63         O  0.60973992  0.36389736  0.82655011    -0.56400
O64         O  0.71751504  0.40132614  0.86570275    -0.55600
O65         O  0.57734736  0.72931677  0.81950131    -0.56800
C66         C  0.49536081  0.75283192  0.94309377     0.75800
O67         O  0.55461433  0.83269553  0.77416241    -0.57900
C68         C  0.57297507  0.71724190  0.76825773     0.75800
C69         C  0.43364752  0.77905632  0.76269600     0.78200
Cd70       Cd  0.51480969  0.77746918  0.82256548     1.37500
O71         O  0.48429175  0.73513877  0.89755933    -0.56800
O72         O  0.45416072  0.74730064  0.77500997    -0.55600
C73         C  0.56638657  0.84911838  0.82043853     0.78200
O74         O  0.44968888  0.81233425  0.77830978    -0.58000
O75         O  0.51531417  0.78506861  0.93488592    -0.56400
O76         O  0.54222319  0.73209273  0.74229012    -0.56400
O77         O  0.54971913  0.83665496  0.86620034    -0.55600
O78         O  0.69999704  0.85511450  0.77824126    -0.56800
C79         C  0.70149721  0.92550100  0.94874484     0.75800
O80         O  0.69204596  0.99639706  0.81516680    -0.57900
C81         C  0.73674831  0.86378200  0.76809049     0.75800
C82         C  0.60106101  0.87744576  0.82181826     0.78200
Cd83       Cd  0.67866917  0.92005473  0.82554524     1.37500
O84         O  0.72652791  0.91481483  0.90993545    -0.56800
O85         O  0.61655837  0.88902530  0.86887559    -0.55600
C86         C  0.67081818  0.00280255  0.77041238     0.78200
O87         O  0.61950534  0.88810388  0.77646268    -0.58000
O88         O  0.66495928  0.93036374  0.93175577    -0.56400
O89         O  0.74785729  0.89858647  0.78466503    -0.56400
O90         O  0.65346100  0.97176674  0.75064893    -0.55600
O91         O  0.80206124  0.84069849  0.73097382    -0.56800
C92         C  0.82031699  0.79732884  0.55519962     0.75800
O93         O  0.89067443  0.79163741  0.68990270    -0.57900
C94         C  0.76433159  0.83460563  0.73824797     0.75800
C95         C  0.76944328  0.70171716  0.68125145     0.78200
Cd96       Cd  0.81665242  0.77430928  0.67790331     1.37500
O97         O  0.83543584  0.76317099  0.57092691    -0.56800
O98         O  0.78664762  0.71416253  0.72662141    -0.55600
C99         C  0.89812190  0.76847906  0.73262655     0.78200
O100        O  0.77821739  0.71970112  0.63475476    -0.58000
O101        O  0.80331908  0.81751952  0.59509649    -0.56400
O102        O  0.75114415  0.80164443  0.71818875    -0.56400
O103        O  0.86900537  0.74611090  0.74857530    -0.55600
O104        O  0.63639990  0.67860883  0.76181886    -0.56800
C105        C  0.63840195  0.61076698  0.56372670     0.75800
O106        O  0.72485931  0.65518084  0.72893953    -0.57900
C107        C  0.60196120  0.68775644  0.74024775     0.75800
C108        C  0.66046066  0.55016371  0.74759369     0.78200
Cd109      Cd  0.66086572  0.62892463  0.68479177     1.37500
O110        O  0.64616341  0.58311430  0.60086147    -0.56800
O111        O  0.68933466  0.55956622  0.71398542    -0.55600
C112        C  0.73691492  0.67171283  0.68283205     0.78200
O113        O  0.63238518  0.57679230  0.75284250    -0.58000
O114        O  0.64544626  0.64673449  0.58035830    -0.56400
O115        O  0.59398553  0.67021206  0.69320527    -0.56400
O116        O  0.71647136  0.66471477  0.63798779    -0.55600
O117        O  0.28010495  0.33123584  0.74616631    -0.56800
C118        C  0.31756089  0.29610233  0.94664815     0.75800
O119        O  0.27502204  0.21358164  0.85442648    -0.57900
C120        C  0.24614010  0.34118215  0.76823134     0.75800
C121        C  0.38355844  0.28116127  0.77143683     0.78200
Cd122      Cd  0.30262256  0.27956952  0.82317138     1.37500
O123        O  0.33451637  0.26498933  0.92491377    -0.56800
O124        O  0.36580718  0.31338822  0.78877829    -0.55600
C125        C  0.25792822  0.20552617  0.80722737     0.78200
O126        O  0.36403246  0.24847632  0.77725831    -0.58000
O127        O  0.29382946  0.31512127  0.91233668    -0.56400
O128        O  0.23832932  0.32400557  0.81605910    -0.56400
O129        O  0.26401684  0.22997098  0.76585039    -0.55600
O130        O  0.13198200  0.17514080  0.72976424    -0.56800
C131        C  0.12984001  0.11761097  0.92780490     0.75800
O132        O  0.13078084  0.06553759  0.74705520    -0.57900
C133        C  0.09595076  0.17959846  0.74831886     0.75800
C134        C  0.22855170  0.17251779  0.80284026     0.78200
Cd135      Cd  0.15638324  0.12431947  0.80520990     1.37500
O136        O  0.12894856  0.09000843  0.88999384    -0.56800
O137        O  0.22077688  0.14959422  0.84546977    -0.55600
C138        C  0.16187131  0.04231957  0.74966025     0.79800
O139        O  0.20659117  0.16862679  0.75849740    -0.58000
O140        O  0.14625328  0.15027075  0.91072019    -0.56400
O141        O  0.08706500  0.15800267  0.79185257    -0.56400
O142        O  0.19218567  0.05674791  0.77632083    -0.55600
O143        O  0.18338870  0.38091670  0.76245274    -0.56800
C144        C  0.18081603  0.43702012  0.55886942     0.75800
O145        O  0.10062791  0.38448525  0.72709697    -0.57900
C146        C  0.21677184  0.37032295  0.73952824     0.75800
C147        C  0.15600133  0.50628133  0.73841999     0.78200
Cd148      Cd  0.15562262  0.42553673  0.68077712     1.37500
O149        O  0.17115230  0.40263330  0.57972898    -0.56800
O150        O  0.18774312  0.48544512  0.72740744    -0.55600
C151        C  0.08188123  0.37607948  0.68117415     0.78200
O152        O  0.12254574  0.49050075  0.72301897    -0.58000
O153        O  0.17388850  0.46702302  0.59170438    -0.56400
O154        O  0.22307098  0.38556451  0.69003025    -0.56400
O155        O  0.09343359  0.39476148  0.63630370    -0.55600
O156        O  0.07420381  0.22866652  0.67592416    -0.56800
C157        C  0.99158775  0.23568357  0.55121021     0.75800
O158        O  0.94498054  0.24110775  0.72318511    -0.57900
C159        C  0.06622209  0.20868102  0.72124962     0.75800
C160        C  0.05180213  0.34287843  0.67886447     0.78200
Cd161      Cd  0.00650059  0.26723995  0.66881033     1.37500
O162        O  0.98256801  0.21896855  0.59862257    -0.56800
O163        O  0.03405495  0.33335533  0.63248381    -0.55600
C164        C  0.92456092  0.27395978  0.72683625     0.78200
O165        O  0.04552270  0.31978318  0.72188658    -0.58000
O166        O  0.00890678  0.26974787  0.55564432    -0.56400
O167        O  0.03132193  0.21546915  0.74246433    -0.56400
O168        O  0.94117043  0.30474100  0.70375859    -0.55600
O169        O  0.18179005  0.64555444  0.93377418    -0.56800
C170        C  0.22924546  0.67676369  0.76269521     0.75800
O171        O  0.12853762  0.56601957  0.78768844    -0.57900
C172        C  0.19287334  0.61046644  0.95067680     0.75800
C173        C  0.09859002  0.67455042  0.83042762     0.78200
Cd174      Cd  0.17041546  0.62493076  0.82778165     1.37500
O175        O  0.19277091  0.68722534  0.77258189    -0.56800
O176        O  0.12725739  0.67676528  0.86659483    -0.55600
C177        C  0.15905216  0.54648153  0.76769486     0.78200
O178        O  0.10080035  0.64619644  0.79367431    -0.58000
O179        O  0.23940072  0.64170389  0.78109118    -0.56400
O180        O  0.18938811  0.58311106  0.91281259    -0.56400
O181        O  0.19337846  0.56308157  0.77471470    -0.55600
O182        O  0.99751851  0.76927405  0.93663913    -0.56800
C183        C  0.07043181  0.83342016  0.76672837     0.75800
O184        O  0.06803950  0.73399020  0.86692209    -0.57900
C185        C  0.99933727  0.80721654  0.94541397     0.75800
C186        C  0.93787821  0.76921759  0.76347988     0.78200
Cd187      Cd  0.01519890  0.77709959  0.82809752     1.37500
O188        O  0.03218879  0.83444120  0.75915783    -0.56800
O189        O  0.96390743  0.79628289  0.75256771    -0.55600
C190        C  0.06677237  0.70609256  0.83002946     0.78200
O191        O  0.94734799  0.74431246  0.80360864    -0.58000
O192        O  0.08348397  0.80668627  0.80198942    -0.56400
O193        O  0.00724979  0.82859216  0.90117568    -0.56400
O194        O  0.03916811  0.70899477  0.79184275    -0.55600
O195        O  0.10659759  0.92910816  0.59736922    -0.56800
C196        C  0.09825670  0.86167039  0.73626308     0.75800
O197        O  0.21815028  0.88620781  0.63231993    -0.57900
C198        C  0.12836747  0.92202971  0.55341534     0.75800
C199        C  0.16137549  0.00057843  0.72420752     0.78200
Cd200      Cd  0.15502337  0.91652256  0.67459621     1.37500
O201        O  0.08927762  0.87782275  0.68817233    -0.56800
O202        O  0.12842178  0.98477615  0.70806908    -0.55600
C203        C  0.22630191  0.86400886  0.67608594     0.78200
O204        O  0.19283978  0.97827217  0.71765646    -0.58000
O205        O  0.13264280  0.87105650  0.75667474    -0.56400
O206        O  0.16476245  0.91052481  0.56380880    -0.56400
O207        O  0.20343789  0.86827640  0.71934122    -0.55600
O208        O  0.29309543  0.69370547  0.71576703    -0.56800
C209        C  0.31761017  0.73682862  0.55057010     0.75800
O210        O  0.27985489  0.82530327  0.63111152    -0.57900
C211        C  0.25781837  0.70452174  0.73234179     0.75800
C212        C  0.39352109  0.77578948  0.73190687     0.78200
Cd213      Cd  0.31251393  0.76305595  0.67247933     1.37500
O214        O  0.31315958  0.77441577  0.56085790    -0.56800
O215        O  0.36995467  0.80565986  0.72046507    -0.55600
C216        C  0.25876496  0.83272764  0.67550369     0.78200
O217        O  0.38059024  0.74170817  0.71550689    -0.58000
O218        O  0.31850910  0.71406185  0.59479462    -0.56400
O219        O  0.24813700  0.74121967  0.72179844    -0.56400
O220        O  0.26497539  0.80996703  0.71929509    -0.55600
C221        C  0.61206340  0.60273999  0.50996461    -0.01500
C222        C  0.32653758  0.71824187  0.49129794    -0.01500
C223        C  0.49265906  0.32066775  0.51115840    -0.01500
C224        C  0.20793822  0.44003599  0.50477677    -0.01500
O225        O  0.73622270  0.90031721  0.20502124    -0.56800
C226        C  0.68627442  0.93873996  0.05734440     0.75800
O227        O  0.63063364  0.85779003  0.16705530    -0.57900
C228        C  0.72576794  0.86862774  0.23261594     0.75800
C229        C  0.65349079  0.99603237  0.24387810     0.78200
Cd230      Cd  0.66284432  0.92166828  0.17697385     1.37500
O231        O  0.68602599  0.96572387  0.09568847    -0.56800
O232        O  0.68407567  0.97218034  0.24846795    -0.55600
C233        C  0.59536617  0.86727933  0.18432834     0.78200
O234        O  0.62486421  0.98440177  0.21120409    -0.58000
O235        O  0.66868266  0.90615442  0.07125513    -0.56400
O236        O  0.68778337  0.86299516  0.23608243    -0.56400
O237        O  0.58889312  0.90441144  0.19694228    -0.55600
O238        O  0.48571249  0.78431715  0.07927937    -0.56800
C239        C  0.56101056  0.70348200  0.24478330     0.75800
O240        O  0.57666368  0.79861061  0.18460828    -0.57900
C241        C  0.50071776  0.75181833  0.05882011     0.75800
C242        C  0.42968220  0.76610860  0.23174110     0.78200
Cd243      Cd  0.51178068  0.76653375  0.18241324     1.37500
O244        O  0.55940062  0.70630743  0.19043922    -0.56800
O245        O  0.44726131  0.73366465  0.21512747    -0.55600
C246        C  0.56500129  0.83520357  0.18847984     0.78200
O247        O  0.44989848  0.79854410  0.22654120    -0.58000
O248        O  0.53812653  0.72828253  0.27182280    -0.56400
O249        O  0.52201655  0.73108828  0.09406743    -0.56400
O250        O  0.52705058  0.84155452  0.19395773    -0.55600
O251        O  0.66424042  0.62789943  0.44005253    -0.56800
C252        C  0.58995854  0.67430667  0.27381080     0.75800
O253        O  0.73041691  0.63801535  0.33525025    -0.57900
C254        C  0.63030937  0.61126464  0.45011035     0.75800
C255        C  0.65709696  0.54108274  0.27450198     0.78200
Cd256      Cd  0.65408441  0.62230662  0.32905184     1.37500
O257        O  0.61602091  0.65392387  0.24546002    -0.56800
O258        O  0.63770973  0.57113408  0.25334637    -0.55600
C259        C  0.72484335  0.67404288  0.31653492     0.78200
O260        O  0.67722206  0.54823529  0.31983766    -0.58000
O261        O  0.59161853  0.66952439  0.32803721    -0.56400
O262        O  0.61020267  0.60127489  0.40588791    -0.56400
O263        O  0.68900487  0.68346779  0.30128128    -0.55600
O264        O  0.79309088  0.84435803  0.26374168    -0.56800
C265        C  0.81773711  0.79930382  0.43865358     0.75800
O266        O  0.74414907  0.74242217  0.31580911    -0.57900
C267        C  0.75499607  0.83890990  0.25939554     0.75800
C268        C  0.88946640  0.76790171  0.25957039     0.78200
Cd269      Cd  0.80787994  0.77605264  0.31740259     1.37500
O270        O  0.80178781  0.76500494  0.43016484    -0.56800
O271        O  0.85673962  0.75838206  0.23377945    -0.55600
C272        C  0.75606177  0.70575202  0.31578120     0.78200
O273        O  0.88485923  0.77875420  0.31125020    -0.58000
O274        O  0.82589207  0.81925166  0.39356150    -0.56400
O275        O  0.74254056  0.80568189  0.27985518    -0.56400
O276        O  0.79447463  0.69936146  0.31580230    -0.55600
O277        O  0.16214557  0.61329561  0.07620382    -0.56800
C278        C  0.23073396  0.66954912  0.23803785     0.75800
O279        O  0.11187483  0.64767586  0.13751215    -0.57900
C280        C  0.19943719  0.60523447  0.06589202     0.75800
C281        C  0.16359856  0.53149361  0.24392621     0.78200
Cd282      Cd  0.17180929  0.61260684  0.18572794     1.37500
O283        O  0.24277162  0.64215828  0.20374565    -0.56800
O284        O  0.16341433  0.56436049  0.27171289    -0.55600
C285        C  0.09867260  0.66448873  0.18276566     0.78200
O286        O  0.16610214  0.53556062  0.18999847    -0.58000
O287        O  0.19294536  0.67008532  0.24838838    -0.56400
O288        O  0.22204998  0.59979349  0.10997440    -0.56400
O289        O  0.11610975  0.65387908  0.22918562    -0.55600
O290        O  0.05222860  0.83910520  0.18245702    -0.56800
C291        C  0.00584525  0.80237978  0.05644666     0.75800
O292        O  0.04607075  0.70582580  0.13765782    -0.57900
C293        C  0.06262957  0.83626188  0.23492172     0.75800
C294        C  0.93072350  0.76783181  0.23142705     0.78200
Cd295      Cd  0.01472512  0.77134197  0.17689437     1.37500
O296        O  0.03169135  0.81583692  0.09212996    -0.56800
O297        O  0.96228480  0.77950183  0.25743712    -0.55600
C298        C  0.06747335  0.69742836  0.18147717     0.78200
O299        O  0.93684031  0.75729585  0.17996381    -0.58000
O300        O  0.98717619  0.77090553  0.07374184    -0.56400
O301        O  0.04991087  0.80492261  0.26117532    -0.56400
O302        O  0.06272898  0.72099407  0.22348242    -0.55600
O303        O  0.16102142  0.94290498  0.41865487    -0.56800
C304        C  0.09022377  0.86607034  0.26314614     0.75800
O305        O  0.14922409  0.96506042  0.22898126    -0.57900
C306        C  0.13428347  0.91918079  0.43896442     0.75800
C307        C  0.22974121  0.86807332  0.29656852     0.78200
Cd308      Cd  0.15596214  0.91597896  0.31433208     1.37500
O309        O  0.10606080  0.89558763  0.23597852    -0.56800
O310        O  0.23182954  0.90119851  0.32362243    -0.55600
C311        C  0.15381027  0.99810600  0.25564011     0.78200
O312        O  0.19564282  0.85983196  0.27516884    -0.58000
O313        O  0.10133061  0.86208431  0.31515932    -0.56400
O314        O  0.12222425  0.89246609  0.40402931    -0.56400
O315        O  0.15809696  0.99418485  0.30962436    -0.55600
O316        O  0.28596780  0.75498695  0.41814895    -0.56800
C317        C  0.25819257  0.69991352  0.26433107     0.75800
O318        O  0.29189223  0.83756478  0.33098019    -0.57900
C319        C  0.32093484  0.74497968  0.43710804     0.75800
C320        C  0.38832326  0.76599715  0.25697959     0.78200
Cd321      Cd  0.30924186  0.76455004  0.31421928     1.37500
O322        O  0.29551027  0.70304978  0.25107997    -0.56800
O323        O  0.37083297  0.73303852  0.27009107    -0.55600
C324        C  0.26263178  0.83757890  0.29530503     0.78200
O325        O  0.36871645  0.79867157  0.26775127    -0.58000
O326        O  0.24516431  0.72508010  0.30105870    -0.56400
O327        O  0.34967103  0.74982209  0.40160459    -0.56400
O328        O  0.25975013  0.80688696  0.26311859    -0.55600
O329        O  0.21235846  0.42538081  0.40321805    -0.56800
C330        C  0.22611810  0.35808101  0.27057276     0.75800
O331        O  0.12758439  0.34749512  0.34390321    -0.57900
C332        C  0.18974318  0.42624978  0.44732143     0.75800
C333        C  0.16249398  0.49077867  0.27243487     0.78200
Cd334      Cd  0.16467813  0.40952967  0.32857028     1.37500
O335        O  0.22073026  0.35667342  0.32443889    -0.56800
O336        O  0.14302769  0.48402978  0.31860662    -0.55600
C337        C  0.09422884  0.35731959  0.32014324     0.78200
O338        O  0.18178155  0.46056228  0.25203768    -0.58000
O339        O  0.20443146  0.38407400  0.24328666    -0.56400
O340        O  0.15262588  0.41796061  0.43842244    -0.56400
O341        O  0.09175530  0.39299475  0.29899337    -0.55600
O342        O  0.06907212  0.23786596  0.26500101    -0.56800
C343        C  0.99290409  0.23467704  0.43725509     0.75800
O344        O  0.06502277  0.29537697  0.34846911    -0.57900
C345        C  0.05837678  0.20256796  0.25038367     0.75800
C346        C  0.92507866  0.26667008  0.26161447     0.78200
Cd347      Cd  0.00613684  0.25995826  0.31671323     1.37500
O348        O  0.98033622  0.26947534  0.42081429    -0.56800
O349        O  0.95402494  0.24523086  0.24152466    -0.55600
C350        C  0.06139810  0.32736033  0.31832702     0.78200
O351        O  0.93355570  0.28730243  0.30574374    -0.58000
O352        O  0.01190679  0.21458126  0.39913456    -0.56400
O353        O  0.02249326  0.19261602  0.26501974    -0.56400
O354        O  0.02970725  0.33056218  0.28685306    -0.55600
O355        O  0.27209323  0.30056105  0.26728347    -0.56800
C356        C  0.32475178  0.29153377  0.06140755     0.75800
O357        O  0.37234976  0.29929391  0.22262657    -0.57900
C358        C  0.25488725  0.32997936  0.24095418     0.75800
C359        C  0.25802962  0.19752592  0.17940559     0.78200
Cd360      Cd  0.30853378  0.26969417  0.18273982     1.37500
O361        O  0.29336559  0.27112974  0.07325527    -0.56800
O362        O  0.27034119  0.21180099  0.22676667    -0.55600
C363        C  0.39019785  0.26674535  0.23876987     0.78200
O364        O  0.27278448  0.21330579  0.13434950    -0.58000
O365        O  0.34736292  0.29869641  0.10432350    -0.56400
O366        O  0.26287778  0.33284031  0.18787838    -0.56400
O367        O  0.37131454  0.23405219  0.22805506    -0.55600
O368        O  0.07830308  0.13964445  0.20278915    -0.56800
C369        C  0.12480022  0.12044689  0.04342398     0.75800
O370        O  0.21463386  0.15127889  0.12930618    -0.57900
C371        C  0.08738312  0.17496912  0.21977361     0.75800
C372        C  0.15401247  0.03871051  0.22546030     0.78200
Cd373      Cd  0.15004177  0.12101669  0.16646237     1.37500
O374        O  0.16277934  0.12091727  0.05385611    -0.56800
O375        O  0.15106155  0.04256551  0.17133700    -0.55600
C376        C  0.22515449  0.16730533  0.17634541     0.78200
O377        O  0.15703329  0.07186957  0.25220927    -0.58000
O378        O  0.10238042  0.12140805  0.08778206    -0.56400
O379        O  0.12376853  0.18546820  0.21037327    -0.56400
O380        O  0.20345715  0.15886915  0.21967351    -0.55600
O381        O  0.56942996  0.32100667  0.32550937    -0.56800
C382        C  0.49754354  0.29342458  0.45742641     0.75800
O383        O  0.44677550  0.30158717  0.28146449    -0.57900
C384        C  0.55851563  0.34153895  0.28163786     0.75800
C385        C  0.55793598  0.20160622  0.31186526     0.78200
Cd386      Cd  0.50894146  0.27407867  0.33234387     1.37500
O387        O  0.53221218  0.28372206  0.43752321    -0.56800
O388        O  0.56131534  0.23347232  0.28154856    -0.55600
C389        C  0.43028622  0.26798883  0.26935136     0.78200
O390        O  0.52907742  0.20130757  0.34809644    -0.58000
O391        O  0.46832371  0.28827959  0.42245343    -0.56400
O392        O  0.52360287  0.33303630  0.26185360    -0.56400
O393        O  0.44977930  0.23626909  0.28579819    -0.55600
O394        O  0.70025177  0.18061956  0.30670651    -0.56800
C395        C  0.68021232  0.10889306  0.44909578     0.75800
O396        O  0.58810595  0.13848245  0.34396936    -0.57900
C397        C  0.72266372  0.16804914  0.26610235     0.75800
C398        C  0.65302557  0.03607585  0.27292552     0.78200
Cd399      Cd  0.65969344  0.11756231  0.32498335     1.37500
O400        O  0.64569268  0.12469307  0.43774864    -0.56800
O401        O  0.62390866  0.06174920  0.26854075    -0.55600
C402        C  0.58890136  0.16890494  0.31004803     0.78200
O403        O  0.68341556  0.04735568  0.30192530    -0.58000
O404        O  0.70099420  0.09940359  0.40538610    -0.56400
O405        O  0.71801448  0.13103731  0.25281531    -0.56400
O406        O  0.62013539  0.17233974  0.27831475    -0.55600
O407        O  0.74309579  0.23403830  0.23375990    -0.56800
C408        C  0.81386355  0.24333694  0.05323110     0.75800
O409        O  0.74163860  0.29499315  0.20784923    -0.57900
C410        C  0.75077905  0.19632534  0.23532100     0.75800
C411        C  0.88389361  0.26643966  0.23494056     0.78200
Cd412      Cd  0.80306247  0.25937230  0.17812257     1.37500
O413        O  0.81801814  0.21831530  0.09473714    -0.56800
O414        O  0.87879904  0.25323141  0.18481616    -0.55600
C415        C  0.74971271  0.32997173  0.18802758     0.78200
O416        O  0.85168739  0.27784208  0.26052200    -0.58000
O417        O  0.80146076  0.27856932  0.06746691    -0.56400
O418        O  0.78318654  0.18547516  0.20942661    -0.56400
O419        O  0.78429166  0.33401220  0.16438761    -0.55600
O420        O  0.61245258  0.40702979  0.10280107    -0.56800
C421        C  0.58642148  0.37149086  0.25362187     0.75800
O422        O  0.68414779  0.35491409  0.21260855    -0.57900
C423        C  0.62979564  0.43199259  0.06900231     0.75800
C424        C  0.65545932  0.50007750  0.24814508     0.78200
Cd425      Cd  0.64984592  0.41950561  0.19205110     1.37500
O426        O  0.57864897  0.38888269  0.20574420    -0.56800
O427        O  0.67544763  0.46953529  0.26698819    -0.55600
C428        C  0.71841906  0.36239728  0.19101357     0.78200
O429        O  0.63297521  0.49352822  0.20503113    -0.58000
O430        O  0.62103917  0.37920451  0.27494549    -0.56400
O431        O  0.66127832  0.44856253  0.08957663    -0.56400
O432        O  0.72301090  0.39804348  0.17063326    -0.55600
C433        C  0.44757379  0.33532249  0.51694613     0.02400
C434        C  0.43715610  0.37698510  0.52593103     0.05200
C435        C  0.39666453  0.38980941  0.52102503    -0.10900
C436        C  0.36559754  0.36157927  0.53151568     0.24500
C437        C  0.37626919  0.32046465  0.54085932    -0.11400
C438        C  0.41561855  0.30650763  0.52604320     0.05900
C439        C  0.32248877  0.37516219  0.53471949     0.28300
C440        C  0.31019332  0.40434901  0.57535288    -0.12100
C441        C  0.27324217  0.42596639  0.56685169     0.06400
C442        C  0.24528688  0.41313099  0.52318387    -0.08100
C443        C  0.25342970  0.37471408  0.49745778     0.07200
C444        C  0.29354020  0.35978781  0.49607275    -0.12500
Br445      Br  0.33912721  0.28529859  0.58168888    -0.04500
Br446      Br  0.46929894  0.41126714  0.57487494     0.01100
Br447      Br  0.26446623  0.47418764  0.61295869     0.01500
Br448      Br  0.30893779  0.32257340  0.43579259    -0.02900
Br449      Br  0.42445396  0.24805376  0.52391815     0.01600
Br450      Br  0.38588258  0.44692838  0.50705659    -0.02200
Br451      Br  0.34466189  0.41519050  0.64113225    -0.03000
Br452      Br  0.21073928  0.33817761  0.47406781     0.00900
C453        C  0.29844037  0.68180504  0.47628050     0.02400
C454        C  0.26235287  0.67308430  0.50804756     0.05200
C455        C  0.24650535  0.63371533  0.50640179    -0.10900
C456        C  0.25672483  0.60797314  0.46046802     0.24500
C457        C  0.28207833  0.62253510  0.41659218    -0.11400
C458        C  0.30696216  0.65613461  0.42765505     0.05900
C459        C  0.24416896  0.56487837  0.46155638     0.28300
C460        C  0.27372906  0.53353584  0.46520112    -0.12100
C461        C  0.26117366  0.49315511  0.46966290     0.06400
C462        C  0.22065576  0.48427263  0.48869026    -0.08100
C463        C  0.19057682  0.51567724  0.47891031     0.07200
C464        C  0.20266733  0.55484685  0.46090859    -0.12500
Br465      Br  0.28364324  0.59518193  0.34311163    -0.04500
Br466      Br  0.22907418  0.71424932  0.54505588     0.01100
Br467      Br  0.29602318  0.45415147  0.43053495     0.01500
Br468      Br  0.16347377  0.59422031  0.43095590    -0.02900
Br469      Br  0.35367771  0.66232676  0.37748490     0.01600
Br470      Br  0.21503575  0.61429377  0.57097530    -0.02200
Br471      Br  0.33164850  0.54449473  0.46198022    -0.03000
Br472      Br  0.13260765  0.50587497  0.48407043     0.00900
C473        C  0.57469757  0.63120989  0.52037939     0.02400
C474        C  0.56477998  0.66317572  0.48116796     0.05200
C475        C  0.52413879  0.67456003  0.47433355    -0.10900
C476        C  0.49735348  0.66853787  0.52044530     0.24500
C477        C  0.51194416  0.64973876  0.57127005    -0.11400
C478        C  0.54826694  0.62655325  0.56898492     0.05900
C479        C  0.45438454  0.68132000  0.51518491     0.28300
C480        C  0.44436790  0.72269930  0.50686870    -0.12100
C481        C  0.40346442  0.73469329  0.49883660     0.06400
C482        C  0.37173432  0.70490780  0.49993705    -0.08100
C483        C  0.38261202  0.66480675  0.51995241     0.07200
C484        C  0.42349270  0.65229755  0.52104782    -0.12500
Br485      Br  0.48173154  0.65486350  0.64227741    -0.04500
Br486      Br  0.60440775  0.70275689  0.45784084     0.01100
Br487      Br  0.39267990  0.79303044  0.49324369     0.01500
Br488      Br  0.43647647  0.59487887  0.53190755    -0.02900
Br489      Br  0.55830685  0.58815037  0.63123256     0.01600
Br490      Br  0.50533175  0.69155665  0.39910596    -0.02200
Br491      Br  0.48703086  0.76325551  0.50843388    -0.03000
Br492      Br  0.34555042  0.62901265  0.56062598     0.00900
C493        C  0.52280772  0.35623772  0.49872703     0.02400
C494        C  0.51801130  0.38270522  0.44955851     0.05200
C495        C  0.54224150  0.41766396  0.44461360    -0.10900
C496        C  0.56340474  0.43146473  0.49324989     0.24500
C497        C  0.57002158  0.40477599  0.53977997    -0.11400
C498        C  0.55603738  0.36488131  0.53645788     0.05900
C499        C  0.57637966  0.47432304  0.49668313     0.28300
C500        C  0.61800508  0.48426057  0.49709553    -0.12100
C501        C  0.62976080  0.52525376  0.50355398     0.06400
C502        C  0.59951363  0.55715861  0.50541652    -0.08100
C503        C  0.55875966  0.54597280  0.49101927     0.07200
C504        C  0.54674994  0.50554701  0.49542642    -0.12500
Br505      Br  0.59273647  0.42358469  0.61123991    -0.04500
Br506      Br  0.47734693  0.37522434  0.39015464     0.01100
Br507      Br  0.68752470  0.53679079  0.50081670     0.01500
Br508      Br  0.48907022  0.49401823  0.49370148    -0.02900
Br509      Br  0.58898805  0.32349085  0.57500622     0.01600
Br510      Br  0.54536093  0.44769509  0.37278788    -0.02200
Br511      Br  0.65839115  0.44170103  0.48430110    -0.03000
Br512      Br  0.52350390  0.57863106  0.44162610     0.00900
C513        C  0.37646645  0.32537315  0.99373982     0.02400
C514        C  0.40833426  0.30451637  0.02392273     0.05200
C515        C  0.44509097  0.32437940  0.03360712    -0.10900
C516        C  0.45620112  0.35619240  0.99624360     0.24500
C517        C  0.43001473  0.36696690  0.95032789    -0.11400
C518        C  0.38888525  0.35533351  0.95242608     0.05900
C519        C  0.49505303  0.37785130  0.00336199     0.28300
C520        C  0.49438257  0.42055360  0.00838849    -0.12100
C521        C  0.53006971  0.44190196  0.99841427     0.06400
C522        C  0.56823488  0.42238448  0.00702610    -0.08100
C523        C  0.56930866  0.37881115  0.00241652     0.07200
C524        C  0.53268995  0.35729978  0.99615732    -0.12500
Br525      Br  0.45108589  0.39660107  0.88460949    -0.04500
Br526      Br  0.40717016  0.24640511  0.03791861     0.01100
Br527      Br  0.52504600  0.48489713  0.94220715     0.01500
Br528      Br  0.53407864  0.30095090  0.97221767    -0.02900
Br529      Br  0.35205509  0.38177486  0.89846240     0.01600
Br530      Br  0.47718594  0.30965283  0.10050465    -0.02200
Br531      Br  0.44469738  0.45122858  0.02210594    -0.03000
Br532      Br  0.62006514  0.34778685  0.99891846     0.00900
C533        C  0.30522601  0.35433622  0.01701790     0.02400
C534        C  0.26415788  0.35749935  0.99780353     0.05200
C535        C  0.24916893  0.39578501  0.98207550    -0.10900
C536        C  0.26474608  0.42985061  0.01055330     0.24500
C537        C  0.29544318  0.42352418  0.05264450    -0.11400
C538        C  0.31904616  0.38739525  0.05134501     0.05900
C539        C  0.25107372  0.47201939  0.99722118     0.28300
C540        C  0.28095878  0.50121421  0.98535037    -0.12100
C541        C  0.27341539  0.54234655  0.99814041     0.06400
C542        C  0.23238288  0.55697849  0.00357541    -0.08100
C543        C  0.20082563  0.52650232  0.00616090     0.07200
C544        C  0.21074603  0.48470788  0.00749608    -0.12500
Br545      Br  0.30543801  0.46454888  0.11019554    -0.04500
Br546      Br  0.22731293  0.31175110  0.99687262     0.01100
Br547      Br  0.32105808  0.57179971  0.02118677     0.01500
Br548      Br  0.16888636  0.44538749  0.02627208    -0.02900
Br549      Br  0.36825097  0.38588239  0.09738082     0.01600
Br550      Br  0.21478699  0.39960974  0.91486609    -0.02200
Br551      Br  0.33383493  0.48391307  0.95634316    -0.03000
Br552      Br  0.14273590  0.53970962  0.00975735     0.00900
C553        C  0.51064743  0.69166634  0.99446383     0.02400
C554        C  0.49156773  0.65519782  0.97748564     0.05200
C555        C  0.51051821  0.61764319  0.98941818    -0.10900
C556        C  0.55126881  0.61591070  0.00879592     0.24500
C557        C  0.57350779  0.65217141  0.01343655    -0.11400
C558        C  0.55391469  0.68987911  0.00302865     0.05900
C559        C  0.57169687  0.57582256  0.01744509     0.28300
C560        C  0.56269677  0.55137199  0.06562049    -0.12100
C561        C  0.57483332  0.50985468  0.06656011     0.06400
C562        C  0.60092389  0.49407988  0.02219640    -0.08100
C563        C  0.61883622  0.52364674  0.98465468     0.07200
C564        C  0.59977540  0.56166346  0.97660836    -0.12500
Br565      Br  0.63023020  0.65049173  0.03689848    -0.04500
Br566      Br  0.44308688  0.65502822  0.93023868     0.01100
Br567      Br  0.55330879  0.47639358  0.12798577     0.01500
Br568      Br  0.61056188  0.59286314  0.90739147    -0.02900
Br569      Br  0.58717184  0.73846499  0.00027568     0.01600
Br570      Br  0.47871655  0.56924102  0.98185226    -0.02200
Br571      Br  0.53294727  0.57507638  0.12914442    -0.03000
Br572      Br  0.67347749  0.51828954  0.95381552     0.00900
C573        C  0.25118562  0.63809336  0.00240969     0.02400
C574        C  0.24932913  0.67308204  0.03993662     0.05200
C575        C  0.28323300  0.69848970  0.04551783    -0.10900
C576        C  0.31518156  0.69513102  0.00623515     0.24500
C577        C  0.31019550  0.67106174  0.95714628    -0.11400
C578        C  0.27930174  0.64159007  0.95555141     0.05900
C579        C  0.35566119  0.71234438  0.01892301     0.28300
C580        C  0.36858927  0.74845580  0.99262889    -0.12100
C581        C  0.41059234  0.75719209  0.99044018     0.06400
C582        C  0.43997750  0.72819330  0.01261488    -0.08100
C583        C  0.42477231  0.69831475  0.05247821     0.07200
C584        C  0.38283195  0.69005430  0.05414065    -0.12500
Br585      Br  0.34481670  0.67998637  0.89138118    -0.04500
Br586      Br  0.19918297  0.69521153  0.07235689     0.01100
Br587      Br  0.42509144  0.81129122  0.96429189     0.01500
Br588      Br  0.36216908  0.64823849  0.10516228    -0.02900
Br589      Br  0.27901474  0.60557347  0.89011080     0.01600
Br590      Br  0.28511202  0.73994876  0.10421316    -0.02200
Br591      Br  0.32793451  0.78632366  0.96275958    -0.03000
Br592      Br  0.45910722  0.66748157  0.10582590     0.00900
C593        C  0.01273526  0.86935736  0.99829542     0.02400
C594        C  0.99282769  0.90511282  0.97598190     0.05200
C595        C  0.01083867  0.94328105  0.98245354    -0.10900
C596        C  0.05031502  0.94595060  0.00643616     0.24500
C597        C  0.07257592  0.91000659  0.01971952    -0.11400
C598        C  0.05534083  0.87208943  0.00838808     0.05900
C599        C  0.06918347  0.98643342  0.01059010     0.28300
C600        C  0.10317358  0.99649067  0.97689517    -0.12100
C601        C  0.11787949  0.03606582  0.97885207     0.06400
C602        C  0.09076760  0.06889363  0.99355769    -0.08100
C603        C  0.05665277  0.05821643  0.02926205     0.07200
C604        C  0.04992878  0.01697368  0.04310633    -0.12500
Br605      Br  0.12549025  0.91166144  0.05650929    -0.04500
Br606      Br  0.94695041  0.90300379  0.92361076     0.01100
Br607      Br  0.17670091  0.04155152  0.97268196     0.01500
Br608      Br  0.01349288  0.00156476  0.10482589    -0.02900
Br609      Br  0.09184032  0.82659939  0.99281410     0.01600
Br610      Br  0.98085675  0.99180952  0.95724833    -0.02200
Br611      Br  0.12851438  0.95857615  0.92425115    -0.03000
Br612      Br  0.01875020  0.09717490  0.06252396     0.00900
C613        C  0.94445169  0.83508483  0.01792000     0.02400
C614        C  0.93456567  0.85262823  0.07286928     0.05200
C615        C  0.89435530  0.85336219  0.09282386    -0.10900
C616        C  0.86245776  0.85049007  0.05336967     0.24500
C617        C  0.87047696  0.83576864  0.99761273    -0.11400
C618        C  0.91053545  0.82431091  0.98166712     0.05900
C619        C  0.82272375  0.87053232  0.06587468     0.28300
C620        C  0.78632659  0.84936298  0.05767872    -0.12100
C621        C  0.75227141  0.87067269  0.03453718     0.06400
C622        C  0.75207436  0.91438415  0.03395366    -0.08100
C623        C  0.78254620  0.93257144  0.06944126     0.07200
C624        C  0.82040047  0.91288464  0.07494112    -0.12500
Br625      Br  0.82704070  0.83447609  0.94033526    -0.04500
Br626      Br  0.97317991  0.88155904  0.12042281     0.01100
Br627      Br  0.70848106  0.83840450  0.00405533     0.01500
Br628      Br  0.86824416  0.94625357  0.08471458    -0.02900
Br629      Br  0.91454829  0.80004774  0.90610436     0.01600
Br630      Br  0.88257101  0.86174078  0.17354970    -0.02200
Br631      Br  0.78543052  0.79163409  0.07415055    -0.03000
Br632      Br  0.77452561  0.98196537  0.11344034     0.00900
C633        C  0.79968806  0.18903923  0.97933678     0.02400
C634        C  0.76452677  0.17870684  0.01193166     0.05200
C635        C  0.75293407  0.13802054  0.01650096    -0.10900
C636        C  0.76762779  0.10960028  0.97628481     0.24500
C637        C  0.79382481  0.12269319  0.93190678    -0.11400
C638        C  0.81086614  0.16182390  0.93397863     0.05900
C639        C  0.75412260  0.06675275  0.97890083     0.28300
C640        C  0.78299465  0.03492587  0.98399806    -0.12100
C641        C  0.77023478  0.99477873  0.97856860     0.06400
C642        C  0.72908278  0.98499983  0.99240573    -0.08100
C643        C  0.69951899  0.01721450  0.98498691     0.07200
C644        C  0.71254731  0.05720184  0.97297268    -0.12500
Br645      Br  0.80699645  0.08670020  0.86873160    -0.04500
Br646      Br  0.72584370  0.21957360  0.03852164     0.01100
Br647      Br  0.80839608  0.95711790  0.94301321     0.01500
Br648      Br  0.67407861  0.09850990  0.94611160    -0.02900
Br649      Br  0.84887972  0.17624135  0.87365137     0.01600
Br650      Br  0.71888804  0.12185104  0.08039940    -0.02200
Br651      Br  0.83950288  0.04489789  0.00218515    -0.03000
Br652      Br  0.64124767  0.00859739  0.98816018     0.00900
C653        C  0.87101962  0.22086270  0.99481842     0.02400
C654        C  0.88766259  0.18125041  0.00284629     0.05200
C655        C  0.92577056  0.17141708  0.97987808    -0.10900
C656        C  0.95240306  0.20263818  0.96250115     0.24500
C657        C  0.93864708  0.24348456  0.96346778    -0.11400
C658        C  0.89916206  0.25282899  0.98383289     0.05900
C659        C  0.99638778  0.19236041  0.95618930     0.28300
C660        C  0.02381124  0.20123239  0.00089188    -0.12100
C661        C  0.06204288  0.18122129  0.00345758     0.06400
C662        C  0.06826593  0.14418548  0.97189697    -0.08100
C663        C  0.04059896  0.13748483  0.92480311     0.07200
C664        C  0.00885390  0.16565618  0.91301542    -0.12500
Br665      Br  0.97228107  0.28589285  0.93126380    -0.04500
Br666      Br  0.86380419  0.14241179  0.05528738     0.01100
Br667      Br  0.10422507  0.20906283  0.04591414     0.01500
Br668      Br  0.97919624  0.16550089  0.84100235    -0.02900
Br669      Br  0.88473412  0.30926474  0.99830287     0.01600
Br670      Br  0.93748407  0.11449889  0.96582190    -0.02200
Br671      Br  0.00820026  0.23815611  0.06180022    -0.03000
Br672      Br  0.03991556  0.08823971  0.87965959     0.00900
C673        C  0.93287926  0.21189766  0.48908520     0.02400
C674        C  0.91293169  0.19104437  0.44328089     0.05200
C675        C  0.87014992  0.18861506  0.44361156    -0.10900
C676        C  0.84956379  0.19344381  0.49619240     0.24500
C677        C  0.86848618  0.21523267  0.54014540    -0.11400
C678        C  0.90676450  0.23158071  0.52933866     0.05900
C679        C  0.81151143  0.17093910  0.50542531     0.28300
C680        C  0.77377363  0.19157898  0.51038654    -0.12100
C681        C  0.73738105  0.16938805  0.50796903     0.06400
C682        C  0.73877563  0.12580177  0.50334415    -0.08100
C683        C  0.77657765  0.10759134  0.48825410     0.07200
C684        C  0.81258982  0.12846284  0.49725573    -0.12500
Br685      Br  0.84712085  0.21786449  0.61710819    -0.04500
Br686      Br  0.94089272  0.16241512  0.38248945     0.01100
Br687      Br  0.68614773  0.20006666  0.50571436     0.01500
Br688      Br  0.86339090  0.09790763  0.49506445    -0.02900
Br689      Br  0.91295705  0.28828790  0.54749291     0.01600
Br690      Br  0.83980276  0.17642423  0.37452500    -0.02200
Br691      Br  0.77158954  0.25010700  0.52006352    -0.03000
Br692      Br  0.78020346  0.06291874  0.43495779     0.00900
C693        C  0.70730384  0.05353408  0.51701059     0.02400
C694        C  0.68999195  0.02416361  0.47916703     0.05200
C695        C  0.70970141  0.98640761  0.47190554    -0.10900
C696        C  0.73706808  0.97198186  0.51415747     0.24500
C697        C  0.74461709  0.99594040  0.56260224    -0.11400
C698        C  0.73331637  0.03758551  0.56193585     0.05900
C699        C  0.75904435  0.93262981  0.50669803     0.28300
C700        C  0.73867854  0.89538136  0.51313486    -0.12100
C701        C  0.76042838  0.85835393  0.50617145     0.06400
C702        C  0.80333152  0.85849284  0.49392840    -0.08100
C703        C  0.81959773  0.89586833  0.47476010     0.07200
C704        C  0.79989710  0.93251949  0.48823220    -0.12500
Br705      Br  0.77083509  0.97120138  0.62902264    -0.04500
Br706      Br  0.63591545  0.02960356  0.44580476     0.01100
Br707      Br  0.73001046  0.80807199  0.51013424     0.01500
Br708      Br  0.83108395  0.98162940  0.48405633    -0.02900
Br709      Br  0.75671462  0.07081715  0.62152350     0.01600
Br710      Br  0.70129128  0.95653010  0.40171710    -0.02200
Br711      Br  0.68149937  0.89520884  0.53381796    -0.03000
Br712      Br  0.86032353  0.89827804  0.41576642     0.00900
C713        C  0.87671054  0.82200539  0.49878362     0.02400
C714        C  0.90300739  0.79475779  0.46712142     0.05200
C715        C  0.94446750  0.80384270  0.46001742    -0.10900
C716        C  0.96292883  0.83056780  0.49831408     0.24500
C717        C  0.93955656  0.84668427  0.54364155    -0.11400
C718        C  0.89666346  0.84712340  0.54005237     0.05900
C719        C  0.00262363  0.84990852  0.48586016     0.28300
C720        C  0.04086215  0.83157474  0.49859208    -0.12100
C721        C  0.07630083  0.85619334  0.49896213     0.06400
C722        C  0.07216493  0.89992933  0.49565500    -0.08100
C723        C  0.03220966  0.91576669  0.49452253     0.07200
C724        C  0.00102851  0.89183498  0.47517613    -0.12500
Br725      Br  0.96719674  0.86819805  0.61011917    -0.04500
Br726      Br  0.88837364  0.73950645  0.44779553     0.01100
Br727      Br  0.12887655  0.82943545  0.50882680     0.01500
Br728      Br  0.95530595  0.91858576  0.44012821    -0.02900
Br729      Br  0.86824258  0.88335466  0.59206761     0.01600
Br730      Br  0.97520498  0.77931695  0.39846291    -0.02200
Br731      Br  0.04463865  0.77392000  0.51555501    -0.03000
Br732      Br  0.01499734  0.95846662  0.54505661     0.00900
C733        C  0.00154396  0.17185545  0.50048290     0.02400
C734        C  0.98392449  0.13729747  0.52832004     0.05200
C735        C  0.00415541  0.09909831  0.52607543    -0.10900
C736        C  0.03989276  0.09439521  0.49307797     0.24500
C737        C  0.05956949  0.12914518  0.47209480    -0.11400
C738        C  0.04332603  0.16762752  0.48450725     0.05900
C739        C  0.06064198  0.05422324  0.48882960     0.28300
C740        C  0.09284855  0.04459496  0.52658324    -0.12100
C741        C  0.11305331  0.00664208  0.52312833     0.06400
C742        C  0.09768202  0.97550314  0.48602536    -0.08100
C743        C  0.07053020  0.98904305  0.44086517     0.07200
C744        C  0.05075499  0.02739331  0.44438375    -0.12500
Br745      Br  0.10945871  0.12448891  0.42833563    -0.04500
Br746      Br  0.93788172  0.14159164  0.57991059     0.01100
Br747      Br  0.16578914  0.00334811  0.56126937     0.01500
Br748      Br  0.00824982  0.04264440  0.39016524    -0.02900
Br749      Br  0.08060155  0.21284431  0.48851107     0.01600
Br750      Br  0.98589936  0.05469417  0.57384935    -0.02200
Br751      Br  0.10932008  0.08418615  0.58335466    -0.03000
Br752      Br  0.05862212  0.95652822  0.37373230     0.00900
loop_ 
_geom_bond_atom_site_label_1 
_geom_bond_atom_site_label_2 
_geom_bond_distance 
_geom_bond_site_symmetry_2 
_ccdc_geom_bond_type 
C1          C198   1.532       .  S
C1          C306   1.542       .  S
C1          C722   1.560       .  S
C1          C742   1.577       .  S
C2           C92   1.544       .  S
C2          C265   1.534       .  S
C2          C702   1.560       .  S
C2          C713   1.566       .  S
C3           C29   1.549       .  S
C3          C395   1.542       .  S
C3          C682   1.550       .  S
C3          C693   1.569       .  S
C4          C157   1.541       .  S
C4          C343   1.545       .  S
C4          C673   1.554       .  S
C4          C733   1.557   1_655  S
C5           C42   1.547       .  S
C5          C408   1.544   1_556  S
C5          C633   1.561       .  S
C5          C653   1.559       .  S
C6           C79   1.536   1_554  S
C6          C226   1.526       .  S
C6          C622   1.559       .  S
C6          C642   1.557   1_554  S
C7          C185   1.534   1_554  S
C7          C291   1.558   1_655  S
C7          C593   1.555   1_654  S
C7          C613   1.569       .  S
C8          C131   1.557       .  S
C8          C369   1.544   1_556  S
C8          C602   1.555       .  S
C8          C662   1.566       .  S
C9           C66   1.539   1_554  S
C9          C241   1.541       .  S
C9          C553   1.556   1_554  S
C9          C582   1.561       .  S
C10         C172   1.546   1_554  S
C10         C280   1.539       .  S
C10         C542   1.570       .  S
C10         C573   1.576       .  S
C11          C53   1.535   1_554  S
C11         C423   1.544       .  S
C11         C522   1.553       .  S
C11         C562   1.572       .  S
C12         C118   1.555   1_554  S
C12         C356   1.540       .  S
C12         C513   1.555   1_554  S
C12         C533   1.549       .  S
O13          C16   1.264       .  A
O13         Cd18   2.539       .  S
C14         C223   1.539       .  S
C14          O23   1.266       .  A
C14          O19   1.264       .  A
O15          C21   1.264       .  A
O15         Cd18   2.439       .  S
C16          O24   1.265       .  A
C16          C55   1.489       .  S
C17          O22   1.256       .  A
C17          O20   1.265       .  A
C17         C121   1.474       .  S
Cd18         O25   2.487       .  S
Cd18         O24   2.532       .  S
Cd18         O23   2.387       .  S
Cd18         O19   2.637       .  S
Cd18         O22   2.502       .  S
Cd18         O20   2.516       .  S
C21          O25   1.266       .  A
C21          C34   1.465       .  S
O26          C29   1.266       .  A
O26         Cd31   2.612       .  S
C27          O36   1.269       .  A
C27          O32   1.265       .  A
C27          C40   1.493       .  S
O28          C34   1.258       .  A
O28         Cd31   2.454       .  S
C29          O37   1.269       .  A
C30          O35   1.266       .  A
C30          O33   1.263       .  A
C30          C86   1.491       .  S
Cd31         O38   2.511       .  S
Cd31         O37   2.416       .  S
Cd31         O36   2.540       .  S
Cd31         O32   2.536       .  S
Cd31         O35   2.546       .  S
Cd31         O33   2.536       .  S
C34          O38   1.262       .  A
O39          C42   1.268       .  A
O39         Cd44   2.428       .  S
C40          O49   1.267       .  A
C40          O45   1.263       .  A
O41          C47   1.263       .  A
O41         Cd44   2.479       .  S
C42          O50   1.267       .  A
C43          O48   1.268       .  A
C43          O46   1.265       .  A
C43         C164   1.500       .  S
Cd44         O51   2.447       .  S
Cd44         O50   2.576       .  S
Cd44         O49   2.547       .  S
Cd44         O45   2.538       .  S
Cd44         O48   2.579       .  S
Cd44         O46   2.535       .  S
C47          O51   1.263       .  A
C47          C60   1.460       .  S
O52          C55   1.265       .  A
O52         Cd57   2.538       .  S
C53          O62   1.266       .  A
C53          O58   1.266       .  A
O54          C60   1.264       .  A
O54         Cd57   2.423       .  S
C55          O63   1.262       .  A
C56          O61   1.265       .  A
C56          O59   1.262       .  A
C56         C108   1.486       .  S
Cd57         O64   2.473       .  S
Cd57         O63   2.531       .  S
Cd57         O62   2.374       .  S
Cd57         O58   2.619       .  S
Cd57         O61   2.540       .  S
Cd57         O59   2.518       .  S
C60          O64   1.267       .  A
O65          C68   1.266       .  A
O65         Cd70   2.569       .  S
C66          O75   1.263       .  A
C66          O71   1.265       .  A
O67          C73   1.268       .  A
O67         Cd70   2.504       .  S
C68          O76   1.262       .  A
C68         C107   1.499       .  S
C69          O74   1.272       .  A
C69          O72   1.261       .  A
C69         C212   1.500       .  S
Cd70         O77   2.487       .  S
Cd70         O76   2.552       .  S
Cd70         O75   2.623       .  S
Cd70         O71   2.441       .  S
Cd70         O74   2.610       .  S
Cd70         O72   2.490       .  S
C73          O77   1.263       .  A
C73          C82   1.477       .  S
O78          C81   1.262       .  A
O78         Cd83   2.496       .  S
C79          O88   1.266       .  A
C79          O84   1.268       .  A
O80          C86   1.263   1_565  A
O80         Cd83   2.556       .  S
C81          O89   1.265       .  A
C81          C94   1.484       .  S
C82          O87   1.264       .  A
C82          O85   1.267       .  A
Cd83         O90   2.546       .  S
Cd83         O89   2.550       .  S
Cd83         O88   2.533       .  S
Cd83         O84   2.510       .  S
Cd83         O87   2.493       .  S
Cd83         O85   2.495       .  S
C86          O90   1.261   1_545  A
O91          C94   1.265       .  A
O91         Cd96   2.551       .  S
C92         O101   1.269       .  A
C92          O97   1.268       .  A
O93          C99   1.265       .  A
O93         Cd96   2.512       .  S
C94         O102   1.262       .  A
C95         O100   1.261       .  A
C95          O98   1.267       .  A
C95         C112   1.459       .  S
Cd96        O103   2.530       .  S
Cd96        O102   2.500       .  S
Cd96        O101   2.414       .  S
Cd96         O97   2.589       .  S
Cd96        O100   2.425       .  S
Cd96         O98   2.480       .  S
C99         O103   1.264       .  A
C99         C186   1.485       .  S
O104        C107   1.264       .  A
O104       Cd109   2.553       .  S
C105        C221   1.542       .  S
C105        O114   1.268       .  A
C105        O110   1.268       .  A
O106        C112   1.262       .  A
O106       Cd109   2.497       .  S
C107        O115   1.268       .  A
C108        O113   1.266       .  A
C108        O111   1.266       .  A
Cd109       O116   2.432       .  S
Cd109       O115   2.567       .  S
Cd109       O114   2.538       .  S
Cd109       O110   2.521       .  S
Cd109       O113   2.507       .  S
Cd109       O111   2.532       .  S
C112        O116   1.261       .  A
O117        C120   1.265       .  A
O117       Cd122   2.553       .  S
C118        O127   1.266       .  A
C118        O123   1.264       .  A
O119        C125   1.261       .  A
O119       Cd122   2.459       .  S
C120        O128   1.269       .  A
C120        C146   1.497       .  S
C121        O126   1.261       .  A
C121        O124   1.268       .  A
Cd122       O129   2.470       .  S
Cd122       O128   2.547       .  S
Cd122       O127   2.401       .  S
Cd122       O123   2.619       .  S
Cd122       O126   2.488       .  S
Cd122       O124   2.489       .  S
C125        O129   1.263       .  A
C125        C134   1.461       .  S
O130        C133   1.264       .  A
O130       Cd135   2.528       .  S
C131        O140   1.265       .  A
C131        O136   1.267       .  A
O132        C138   1.264       .  A
O132       Cd135   2.515       .  S
C133        O141   1.266       .  A
C133        C159   1.487       .  S
C134        O139   1.263       .  A
C134        O137   1.266       .  A
Cd135       O142   2.586       .  S
Cd135       O141   2.527       .  S
Cd135       O140   2.621       .  S
Cd135       O136   2.438       .  S
Cd135       O139   2.456       .  S
Cd135       O137   2.461       .  S
C138        O142   1.268       .  A
C138        C199   1.496       .  S
O143        C146   1.262       .  A
O143       Cd148   2.544       .  S
C144        C224   1.543       .  S
C144        O153   1.268       .  A
C144        O149   1.267       .  A
O145        C151   1.264       .  A
O145       Cd148   2.501       .  S
C146        O154   1.268       .  A
C147        O152   1.270       .  A
C147        O150   1.264       .  A
C147        C177   1.493       .  S
Cd148       O155   2.509       .  S
Cd148       O154   2.560       .  S
Cd148       O153   2.542       .  S
Cd148       O149   2.521       .  S
Cd148       O152   2.579       .  S
Cd148       O150   2.495       .  S
C151        O155   1.265       .  A
C151        C160   1.479       .  S
O156        C159   1.264       .  A
O156       Cd161   2.541       .  S
C157        O166   1.264   1_655  A
C157        O162   1.263       .  A
O158        C164   1.263       .  A
O158       Cd161   2.534   1_655  S
C159        O167   1.263       .  A
C160        O165   1.267       .  A
C160        O163   1.266       .  A
Cd161       O168   2.588   1_455  S
Cd161       O167   2.524       .  S
Cd161       O166   2.630       .  S
Cd161       O162   2.418   1_455  S
Cd161       O165   2.492       .  S
Cd161       O163   2.499       .  S
C164        O168   1.268       .  A
O169        C172   1.260       .  A
O169       Cd174   2.586       .  S
C170        O179   1.263       .  A
C170        O175   1.260       .  A
C170        C211   1.488       .  S
O171        C177   1.270       .  A
O171       Cd174   2.564       .  S
C172        O180   1.268       .  A
C173        O178   1.269       .  A
C173        O176   1.261       .  A
C173        C190   1.458       .  S
Cd174       O181   2.490       .  S
Cd174       O180   2.467       .  S
Cd174       O179   2.571       .  S
Cd174       O175   2.519       .  S
Cd174       O178   2.499       .  S
Cd174       O176   2.380       .  S
C177        O181   1.266       .  A
O182        C185   1.264       .  A
O182       Cd187   2.599   1_655  S
C183        O192   1.264       .  A
C183        O188   1.264       .  A
C183        C196   1.484       .  S
O184        C190   1.260       .  A
O184       Cd187   2.389       .  S
C185        O193   1.267   1_655  A
C186        O191   1.269       .  A
C186        O189   1.263       .  A
Cd187       O194   2.509       .  S
Cd187       O193   2.416       .  S
Cd187       O192   2.521       .  S
Cd187       O188   2.526       .  S
Cd187       O191   2.546   1_455  S
Cd187       O189   2.496   1_455  S
C190        O194   1.267       .  A
O195        C198   1.267       .  A
O195       Cd200   2.420       .  S
C196        O205   1.263       .  A
C196        O201   1.264       .  A
O197        C203   1.270       .  A
O197       Cd200   2.488       .  S
C198        O206   1.267       .  A
C199        O204   1.265   1_545  A
C199        O202   1.261   1_545  A
Cd200       O207   2.447       .  S
Cd200       O206   2.602       .  S
Cd200       O205   2.525       .  S
Cd200       O201   2.532       .  S
Cd200       O204   2.594       .  S
Cd200       O202   2.520       .  S
C203        O207   1.262       .  A
C203        C216   1.467       .  S
O208        C211   1.265       .  A
O208       Cd213   2.566       .  S
C209        C222   1.537       .  S
C209        O218   1.264       .  A
C209        O214   1.264       .  A
O210        C216   1.266       .  A
O210       Cd213   2.476       .  S
C211        O219   1.262       .  A
C212        O217   1.262       .  A
C212        O215   1.264       .  A
Cd213       O220   2.437       .  S
Cd213       O219   2.510       .  S
Cd213       O218   2.433       .  S
Cd213       O214   2.616       .  S
Cd213       O217   2.528       .  S
Cd213       O215   2.611       .  S
C216        O220   1.270       .  A
C221        C254   1.539       .  S
C221        C473   1.549       .  S
C221        C502   1.559       .  S
C222        C319   1.536       .  S
C222        C453   1.559       .  S
C222        C482   1.549       .  S
C223        C382   1.548       .  S
C223        C433   1.552       .  S
C223        C493   1.563       .  S
C224        C332   1.534       .  S
C224        C442   1.555       .  S
C224        C462   1.556       .  S
O225        C228   1.267       .  A
O225       Cd230   2.574       .  S
C226        O235   1.260       .  A
C226        O231   1.261       .  A
O227        C233   1.259       .  A
O227       Cd230   2.370       .  S
C228        O236   1.262       .  A
C228        C267   1.487       .  S
C229        O234   1.269       .  A
C229        O232   1.266       .  A
C229        C398   1.481   1_565  S
Cd230       O237   2.536       .  S
Cd230       O236   2.481       .  S
Cd230       O235   2.519       .  S
Cd230       O231   2.492       .  S
Cd230       O234   2.524       .  S
Cd230       O232   2.461       .  S
C233        O237   1.270       .  A
C233        C246   1.459       .  S
O238        C241   1.264       .  A
O238       Cd243   2.600       .  S
C239        O248   1.269       .  A
C239        O244   1.266       .  A
C239        C252   1.493       .  S
O240        C246   1.258       .  A
O240       Cd243   2.383       .  S
C241        O249   1.262       .  A
C242        O247   1.265       .  A
C242        O245   1.266       .  A
C242        C320   1.476       .  S
Cd243       O250   2.532       .  S
Cd243       O249   2.389       .  S
Cd243       O248   2.558       .  S
Cd243       O244   2.504       .  S
Cd243       O247   2.495       .  S
Cd243       O245   2.500       .  S
C246        O250   1.264       .  A
O251        C254   1.265       .  A
O251       Cd256   2.607       .  S
C252        O261   1.269       .  A
C252        O257   1.266       .  A
O253        C259   1.265       .  A
O253       Cd256   2.562       .  S
C254        O262   1.267       .  A
C255        O260   1.266       .  A
C255        O258   1.260       .  A
C255        C424   1.484       .  S
Cd256       O263   2.405       .  S
Cd256       O262   2.395       .  S
Cd256       O261   2.548       .  S
Cd256       O257   2.513       .  S
Cd256       O260   2.545       .  S
Cd256       O258   2.503       .  S
C259        O263   1.258       .  A
C259        C272   1.467       .  S
O264        C267   1.266       .  A
O264       Cd269   2.592       .  S
C265        O274   1.261       .  A
C265        O270   1.263       .  A
O266        C272   1.259       .  A
O266       Cd269   2.373       .  S
C267        O275   1.258       .  A
C268        O273   1.264       .  A
C268        O271   1.270       .  A
C268        C294   1.501       .  S
Cd269       O276   2.558       .  S
Cd269       O275   2.490       .  S
Cd269       O274   2.355       .  S
Cd269       O270   2.649       .  S
Cd269       O273   2.527       .  S
Cd269       O271   2.583       .  S
C272        O276   1.272       .  A
O277        C280   1.269       .  A
O277       Cd282   2.562       .  S
C278        O287   1.260       .  A
C278        O283   1.265       .  A
C278        C317   1.485       .  S
O279        C285   1.265       .  A
O279       Cd282   2.516       .  S
C280        O288   1.272       .  A
C281        O286   1.261       .  A
C281        O284   1.261       .  A
C281        C333   1.485       .  S
Cd282       O289   2.478       .  S
Cd282       O288   2.446       .  S
Cd282       O287   2.495       .  S
Cd282       O283   2.564       .  S
Cd282       O286   2.536       .  S
Cd282       O284   2.554       .  S
C285        O289   1.263       .  A
C285        C298   1.476       .  S
O290        C293   1.267       .  A
O290       Cd295   2.556       .  S
C291        O300   1.269   1_455  A
C291        O296   1.269       .  A
O292        C298   1.261       .  A
O292       Cd295   2.545       .  S
C293        O301   1.266       .  A
C293        C304   1.494       .  S
C294        O299   1.263       .  A
C294        O297   1.261       .  A
Cd295       O302   2.501       .  S
Cd295       O301   2.536       .  S
Cd295       O300   2.558   1_455  S
Cd295       O296   2.507       .  S
Cd295       O299   2.598   1_455  S
Cd295       O297   2.555   1_455  S
C298        O302   1.258       .  A
O303        C306   1.268       .  A
O303       Cd308   2.592       .  S
C304        O313   1.266       .  A
C304        O309   1.268       .  A
O305        C311   1.263       .  A
O305       Cd308   2.549       .  S
C306        O314   1.266       .  A
C307        O312   1.255       .  A
C307        O310   1.262       .  A
C307        C324   1.460       .  S
Cd308       O315   2.567       .  S
Cd308       O314   2.481       .  S
Cd308       O313   2.531       .  S
Cd308       O309   2.543       .  S
Cd308       O312   2.423       .  S
Cd308       O310   2.532       .  S
C311        O315   1.266       .  A
C311        C372   1.499   1_565  S
O316        C319   1.264       .  A
O316       Cd321   2.550       .  S
C317        O326   1.263       .  A
C317        O322   1.266       .  A
O318        C324   1.265       .  A
O318       Cd321   2.487       .  S
C319        O327   1.263       .  A
C320        O325   1.268       .  A
C320        O323   1.265       .  A
Cd321       O328   2.421       .  S
Cd321       O327   2.461       .  S
Cd321       O326   2.499       .  S
Cd321       O322   2.548       .  S
Cd321       O325   2.500       .  S
Cd321       O323   2.481       .  S
C324        O328   1.263       .  A
O329        C332   1.265       .  A
O329       Cd334   2.395       .  S
C330        O339   1.266       .  A
C330        O335   1.264       .  A
C330        C358   1.483       .  S
O331        C337   1.259       .  A
O331       Cd334   2.406       .  S
C332        O340   1.266       .  A
C333        O338   1.264       .  A
C333        O336   1.268       .  A
Cd334       O341   2.549       .  S
Cd334       O340   2.599       .  S
Cd334       O339   2.515       .  S
Cd334       O335   2.509       .  S
Cd334       O338   2.499       .  S
Cd334       O336   2.542       .  S
C337        O341   1.266       .  A
C337        C350   1.466       .  S
O342        C345   1.263       .  A
O342       Cd347   2.489       .  S
C343        O352   1.267   1_655  A
C343        O348   1.263       .  A
O344        C350   1.259       .  A
O344       Cd347   2.383       .  S
C345        O353   1.269       .  A
C345        C371   1.489       .  S
C346        O351   1.265       .  A
C346        O349   1.265       .  A
C346        C411   1.483       .  S
Cd347       O354   2.540       .  S
Cd347       O353   2.573       .  S
Cd347       O352   2.419       .  S
Cd347       O348   2.583   1_455  S
Cd347       O351   2.539   1_455  S
Cd347       O349   2.493   1_455  S
C350        O354   1.270       .  A
O355        C358   1.263       .  A
O355       Cd360   2.513       .  S
C356        O365   1.266       .  A
C356        O361   1.263       .  A
O357        C363   1.263       .  A
O357       Cd360   2.495       .  S
C358        O366   1.264       .  A
C359        O364   1.263       .  A
C359        O362   1.266       .  A
C359        C376   1.474       .  S
Cd360       O367   2.569       .  S
Cd360       O366   2.540       .  S
Cd360       O365   2.418       .  S
Cd360       O361   2.590       .  S
Cd360       O364   2.478       .  S
Cd360       O362   2.499       .  S
C363        O367   1.271       .  A
C363        C389   1.492       .  S
O368        C371   1.266       .  A
O368       Cd373   2.565       .  S
C369        O378   1.266       .  A
C369        O374   1.266       .  A
O370        C376   1.266       .  A
O370       Cd373   2.499       .  S
C371        O379   1.263       .  A
C372        O377   1.262       .  A
C372        O375   1.266       .  A
Cd373       O380   2.490       .  S
Cd373       O379   2.497       .  S
Cd373       O378   2.400       .  S
Cd373       O374   2.649       .  S
Cd373       O377   2.558       .  S
Cd373       O375   2.573       .  S
C376        O380   1.264       .  A
O381        C384   1.264       .  A
O381       Cd386   2.528       .  S
C382        O391   1.267       .  A
C382        O387   1.264       .  A
O383        C389   1.267       .  A
O383       Cd386   2.504       .  S
C384        O392   1.266       .  A
C384        C421   1.496       .  S
C385        O390   1.266       .  A
C385        O388   1.261       .  A
C385        C402   1.466       .  S
Cd386       O393   2.556       .  S
Cd386       O392   2.572       .  S
Cd386       O391   2.525       .  S
Cd386       O387   2.581       .  S
Cd386       O390   2.490       .  S
Cd386       O388   2.465       .  S
C389        O393   1.268       .  A
O394        C397   1.264       .  A
O394       Cd399   2.505       .  S
C395        O404   1.262       .  A
C395        O400   1.263       .  A
O396        C402   1.266       .  A
O396       Cd399   2.474       .  S
C397        O405   1.266       .  A
C397        C410   1.494       .  S
C398        O403   1.262       .  A
C398        O401   1.266       .  A
Cd399       O406   2.444       .  S
Cd399       O405   2.583       .  S
Cd399       O404   2.370       .  S
Cd399       O400   2.671       .  S
Cd399       O403   2.482       .  S
Cd399       O401   2.556       .  S
C402        O406   1.267       .  A
O407        C410   1.258       .  A
O407       Cd412   2.499       .  S
C408        O417   1.266       .  A
C408        O413   1.266       .  A
O409        C415   1.263       .  A
O409       Cd412   2.416       .  S
C410        O418   1.269       .  A
C411        O416   1.265       .  A
C411        O414   1.257       .  A
Cd412       O419   2.532       .  S
Cd412       O418   2.614       .  S
Cd412       O417   2.641       .  S
Cd412       O413   2.415       .  S
Cd412       O416   2.568       .  S
Cd412       O414   2.489       .  S
C415        O419   1.267       .  A
C415        C428   1.468       .  S
O420        C423   1.269       .  A
O420       Cd425   2.445       .  S
C421        O430   1.265       .  A
C421        O426   1.269       .  A
O422        C428   1.256       .  A
O422       Cd425   2.426       .  S
C423        O431   1.266       .  A
C424        O429   1.263       .  A
C424        O427   1.263       .  A
Cd425       O432   2.538       .  S
Cd425       O431   2.585       .  S
Cd425       O430   2.517       .  S
Cd425       O426   2.569       .  S
Cd425       O429   2.502       .  S
Cd425       O427   2.550       .  S
C428        O432   1.268       .  A
C433        C434   1.420       .  A
C433        C438   1.433       .  A
C434        C435   1.389       .  A
C434       Br446   1.927       .  S
C435        C436   1.404       .  A
C435       Br450   1.925       .  S
C436        C439   1.476       .  S
C436        C437   1.403       .  A
C437        C438   1.406       .  A
C437       Br445   1.931       .  S
C438       Br449   1.935       .  S
C439        C440   1.405       .  A
C439        C444   1.405       .  A
C440        C441   1.406       .  A
C440       Br451   1.936       .  S
C441        C442   1.434       .  A
C441       Br447   1.936       .  S
C442        C443   1.421       .  A
C443        C444   1.395       .  A
C443       Br452   1.933       .  S
C444       Br448   1.929       .  S
C453        C454   1.425       .  A
C453        C458   1.440       .  A
C454        C455   1.398       .  A
C454       Br466   1.932       .  S
C455        C456   1.404       .  A
C455       Br470   1.929       .  S
C456        C459   1.476       .  S
C456        C457   1.400       .  A
C457        C458   1.404       .  A
C457       Br465   1.935       .  S
C458       Br469   1.936       .  S
C459        C460   1.404       .  A
C459        C464   1.402       .  A
C460        C461   1.394       .  A
C460       Br471   1.936       .  S
C461        C462   1.432       .  A
C461       Br467   1.936       .  S
C462        C463   1.431       .  A
C463        C464   1.409       .  A
C463       Br472   1.933       .  S
C464       Br468   1.932       .  S
C473        C474   1.416       .  A
C473        C478   1.432       .  A
C474        C475   1.385       .  A
C474       Br486   1.922       .  S
C475        C476   1.400       .  A
C475       Br490   1.926       .  S
C476        C479   1.467       .  S
C476        C477   1.406       .  A
C477        C478   1.404       .  A
C477       Br485   1.932       .  S
C478       Br489   1.933       .  S
C479        C480   1.403       .  A
C479        C484   1.404       .  A
C480        C481   1.402       .  A
C480       Br491   1.941       .  S
C481        C482   1.435       .  A
C481       Br487   1.943       .  S
C482        C483   1.430       .  A
C483        C484   1.394       .  A
C483       Br492   1.940       .  S
C484       Br488   1.938       .  S
C493        C494   1.435       .  A
C493        C498   1.428       .  A
C494        C495   1.406       .  A
C494       Br506   1.935       .  S
C495        C496   1.405       .  A
C495       Br510   1.933       .  S
C496        C499   1.476       .  S
C496        C497   1.399       .  A
C497        C498   1.394       .  A
C497       Br505   1.927       .  S
C498       Br509   1.934       .  S
C499        C500   1.405       .  A
C499        C504   1.401       .  A
C500        C501   1.412       .  A
C500       Br511   1.934       .  S
C501        C502   1.431       .  A
C501       Br507   1.934       .  S
C502        C503   1.428       .  A
C503        C504   1.390       .  A
C503       Br512   1.932       .  S
C504       Br508   1.931       .  S
C513        C514   1.420   1_556  A
C513        C518   1.430       .  A
C514        C515   1.395       .  A
C514       Br526   1.930       .  S
C515        C516   1.403   1_554  A
C515       Br530   1.928       .  S
C516        C519   1.475   1_556  S
C516        C517   1.406       .  A
C517        C518   1.405       .  A
C517       Br525   1.935       .  S
C518       Br529   1.929       .  S
C519        C520   1.406       .  A
C519        C524   1.407   1_554  A
C520        C521   1.389   1_554  A
C520       Br531   1.929       .  S
C521        C522   1.409   1_556  A
C521       Br527   1.917       .  S
C522        C523   1.433       .  A
C523        C524   1.407   1_554  A
C523       Br532   1.938   1_554  S
C524       Br528   1.934       .  S
C533        C534   1.418   1_554  A
C533        C538   1.429       .  A
C534        C535   1.387       .  A
C534       Br546   1.937       .  S
C535        C536   1.404   1_556  A
C535       Br550   1.925       .  S
C536        C539   1.477   1_554  S
C536        C537   1.412       .  A
C537        C538   1.406       .  A
C537       Br545   1.935       .  S
C538       Br549   1.931       .  S
C539        C540   1.404       .  A
C539        C544   1.400   1_556  A
C540        C541   1.402       .  A
C540       Br551   1.938       .  S
C541        C542   1.426   1_556  A
C541       Br547   1.923   1_556  S
C542        C543   1.448       .  A
C543        C544   1.404       .  A
C543       Br552   1.947       .  S
C544       Br548   1.941       .  S
C553        C554   1.415       .  A
C553        C558   1.430   1_556  A
C554        C555   1.396       .  A
C554       Br566   1.928       .  S
C555        C556   1.407   1_556  A
C555       Br570   1.918       .  S
C556        C559   1.478       .  S
C556        C557   1.407       .  A
C557        C558   1.404       .  A
C557       Br565   1.934       .  S
C558       Br569   1.942       .  S
C559        C560   1.404       .  A
C559        C564   1.400   1_554  A
C560        C561   1.412       .  A
C560       Br571   1.933       .  S
C561        C562   1.435       .  A
C561       Br567   1.932       .  S
C562        C563   1.430   1_554  A
C563        C564   1.397       .  A
C563       Br572   1.934       .  S
C564       Br568   1.933       .  S
C573        C574   1.447       .  A
C573        C578   1.431   1_554  A
C574        C575   1.403       .  A
C574       Br586   1.942       .  S
C575        C576   1.393       .  A
C575       Br590   1.935       .  S
C576        C579   1.477       .  S
C576        C577   1.403   1_554  A
C577        C578   1.409       .  A
C577       Br585   1.926       .  S
C578       Br589   1.933       .  S
C579        C580   1.398   1_554  A
C579        C584   1.401       .  A
C580        C581   1.409       .  A
C580       Br591   1.931       .  S
C581        C582   1.435   1_556  A
C581       Br587   1.935       .  S
C582        C583   1.436       .  A
C583        C584   1.403       .  A
C583       Br592   1.939       .  S
C584       Br588   1.934       .  S
C593        C594   1.426   1_455  A
C593        C598   1.418   1_556  A
C594        C595   1.399   1_655  A
C594       Br606   1.933       .  S
C595        C596   1.410   1_556  A
C595       Br610   1.943   1_455  S
C596        C599   1.475       .  S
C596        C597   1.408       .  A
C597        C598   1.399       .  A
C597       Br605   1.931       .  S
C598       Br609   1.935   1_554  S
C599        C600   1.403   1_554  A
C599        C604   1.403   1_565  A
C600        C601   1.391   1_565  A
C600       Br611   1.932       .  S
C601        C602   1.430       .  A
C601       Br607   1.942       .  S
C602        C603   1.437   1_556  A
C603        C604   1.407       .  A
C603       Br612   1.935       .  S
C604       Br608   1.934       .  S
C613        C614   1.440       .  A
C613        C618   1.442   1_554  A
C614        C615   1.396       .  A
C614       Br626   1.940       .  S
C615        C616   1.392       .  A
C615       Br630   1.936       .  S
C616        C619   1.480       .  S
C616        C617   1.410   1_554  A
C617        C618   1.410       .  A
C617       Br625   1.946       .  S
C618       Br629   1.937       .  S
C619        C620   1.400       .  A
C619        C624   1.407       .  A
C620        C621   1.410       .  A
C620       Br631   1.928       .  S
C621        C622   1.433       .  A
C621       Br627   1.930       .  S
C622        C623   1.432       .  A
C623        C624   1.394       .  A
C623       Br632   1.938       .  S
C624       Br628   1.936       .  S
C633        C634   1.422   1_556  A
C633        C638   1.431       .  A
C634        C635   1.395       .  A
C634       Br646   1.937       .  S
C635        C636   1.406   1_554  A
C635       Br650   1.932       .  S
C636        C639   1.479       .  S
C636        C637   1.410       .  A
C637        C638   1.407       .  A
C637       Br645   1.937       .  S
C638       Br649   1.935       .  S
C639        C640   1.402       .  A
C639        C644   1.407       .  A
C640        C641   1.393   1_545  A
C640       Br651   1.929   1_556  S
C641        C642   1.425       .  A
C641       Br647   1.936       .  S
C642        C643   1.432   1_565  A
C643        C644   1.409       .  A
C643       Br652   1.933       .  S
C644       Br648   1.935       .  S
C653        C654   1.412   1_556  A
C653        C658   1.426       .  A
C654        C655   1.393   1_554  A
C654       Br666   1.928       .  S
C655        C656   1.410       .  A
C655       Br670   1.930       .  S
C656        C659   1.482       .  S
C656        C657   1.407       .  A
C657        C658   1.408       .  A
C657       Br665   1.931       .  S
C658       Br669   1.936       .  S
C659        C660   1.406   1_656  A
C659        C664   1.395   1_655  A
C660        C661   1.406       .  A
C660       Br671   1.935       .  S
C661        C662   1.436   1_554  A
C661       Br667   1.938       .  S
C662        C663   1.439       .  A
C663        C664   1.406       .  A
C663       Br672   1.933       .  S
C664       Br668   1.932   1_455  S
C673        C674   1.431       .  A
C673        C678   1.421       .  A
C674        C675   1.404       .  A
C674       Br686   1.928       .  S
C675        C676   1.405       .  A
C675       Br690   1.933       .  S
C676        C679   1.471       .  S
C676        C677   1.399       .  A
C677        C678   1.392       .  A
C677       Br685   1.923       .  S
C678       Br689   1.923       .  S
C679        C680   1.406       .  A
C679        C684   1.407       .  A
C680        C681   1.405       .  A
C680       Br691   1.934       .  S
C681        C682   1.434       .  A
C681       Br687   1.944       .  S
C682        C683   1.413       .  A
C683        C684   1.387       .  A
C683       Br692   1.928       .  S
C684       Br688   1.931       .  S
C693        C694   1.431       .  A
C693        C698   1.436       .  A
C694        C695   1.400   1_545  A
C694       Br706   1.936       .  S
C695        C696   1.402       .  A
C695       Br710   1.930       .  S
C696        C699   1.480       .  S
C696        C697   1.401       .  A
C697        C698   1.409   1_565  A
C697       Br705   1.930       .  S
C698       Br709   1.932       .  S
C699        C700   1.406       .  A
C699        C704   1.405       .  A
C700        C701   1.410       .  A
C700       Br711   1.933       .  S
C701        C702   1.433       .  A
C701       Br707   1.939       .  S
C702        C703   1.411       .  A
C703        C704   1.394       .  A
C703       Br712   1.915       .  S
C704       Br708   1.920       .  S
C713        C714   1.440       .  A
C713        C718   1.432       .  A
C714        C715   1.403       .  A
C714       Br726   1.936       .  S
C715        C716   1.396       .  A
C715       Br730   1.925       .  S
C716        C719   1.481   1_655  S
C716        C717   1.405       .  A
C717        C718   1.406       .  A
C717       Br725   1.931       .  S
C718       Br729   1.933       .  S
C719        C720   1.411       .  A
C719        C724   1.395       .  A
C720        C721   1.422       .  A
C720       Br731   1.929       .  S
C721        C722   1.440       .  A
C721       Br727   1.933       .  S
C722        C723   1.401       .  A
C723        C724   1.373       .  A
C723       Br732   1.914       .  S
C724       Br728   1.902   1_455  S
C733        C734   1.428   1_455  A
C733        C738   1.423       .  A
C734        C735   1.410   1_655  A
C734       Br746   1.932       .  S
C735        C736   1.407       .  A
C735       Br750   1.924   1_455  S
C736        C739   1.478       .  S
C736        C737   1.400       .  A
C737        C738   1.395       .  A
C737       Br745   1.930       .  S
C738       Br749   1.935       .  S
C739        C740   1.401       .  A
C739        C744   1.402       .  A
C740        C741   1.404       .  A
C740       Br751   1.939       .  S
C741        C742   1.437   1_545  A
C741       Br747   1.940       .  S
C742        C743   1.437       .  A
C743        C744   1.409   1_565  A
C743       Br752   1.938       .  S
C744       Br748   1.932       .  S
