geometry optimzed in LAMMPS
_audit_creation_date              2020-11-30 
_audit_creation_method            'lammps2cif' 
_symmetry_space_group_name_H-M    'P1' 
_symmetry_Int_Tables_number       1 
_symmetry_cell_setting            triclinic 
loop_ 
_symmetry_equiv_pos_as_xyz 
  x,y,z 
_cell_length_a                    33.20637243 
_cell_length_b                    33.86588623152403 
_cell_length_c                    43.80355672660846 
_cell_angle_alpha                 90.46826982880842 
_cell_angle_beta                  89.86109446514001 
_cell_angle_gamma                 119.87629745862246 
loop_ 
_atom_site_label 
_atom_site_type_symbol 
_atom_site_fract_x 
_atom_site_fract_y 
_atom_site_fract_z 
_atom_site_charge 
O1          O  0.24491095  0.17563805  0.79156321    -0.78300
C2          C  0.26591891  0.05842487  0.78529174     0.82700
O3          O  0.24876747  0.13699843  0.89560840    -0.79400
O4          O  0.37679026  0.11139205  0.85673891    -0.80900
O5          O  0.40700140  0.23344097  0.78773442    -0.80700
O6          O  0.31101851  0.24137658  0.79246009    -0.79300
Zn7        Zn  0.25694461  0.13375275  0.81737348     1.55700
O8          O  0.40808921  0.16857407  0.79085533    -0.80700
Cd9        Cd  0.35391386  0.22500403  0.81660288     1.59700
Cd10       Cd  0.31760745  0.16416860  0.87992147     1.59600
O11         O  0.38087597  0.27077621  0.85193012    -0.80700
O12         O  0.31938875  0.16271992  0.83366437    -1.91200
Cd13       Cd  0.35227408  0.13006850  0.81947718     1.59900
O14         O  0.35533622  0.23179818  0.89524281    -0.80700
O15         O  0.30744702  0.07320399  0.79442138    -0.79300
C16         C  0.21091989  0.11932419  0.88030478     0.83200
C17         C  0.26865824  0.21743163  0.78444528     0.82900
O18         O  0.24333842  0.07847788  0.79240142    -0.78300
C19         C  0.42427868  0.20854664  0.78023202     0.83700
O20         O  0.21112226  0.11587335  0.85134838    -0.78400
C21         C  0.37786883  0.26939311  0.88095750     0.83800
C22         C  0.37182712  0.11169879  0.88561959     0.84100
O23         O  0.34839951  0.12810445  0.89815418    -0.80800
C24         C  0.17437845  0.38014633  0.72691366     0.86700
C25         C  0.19745668  0.35563425  0.74158145    -0.53600
C26         C  0.18091732  0.31189390  0.73194163     0.09600
C27         C  0.13965094  0.29519862  0.70940551     0.20500
C28         C  0.17763942  0.37413566  0.69236663    -0.54300
C29         C  0.15949322  0.32972838  0.68271136     0.09700
C30         C  0.12283268  0.34965165  0.73443414    -0.53800
C31         C  0.10398157  0.30546633  0.72512780     0.10300
H32         H  0.22525552  0.37205449  0.75824652     0.14800
H33         H  0.12474568  0.25901507  0.70287179     0.00500
H34         H  0.19303645  0.40320324  0.67736213     0.15100
H35         H  0.10223621  0.36053933  0.74724736     0.14900
C36         C  0.46280545  0.44734379  0.94171714     0.86700
C37         C  0.01109974  0.47763315  0.92721567    -0.53600
C38         C  0.02977338  0.02360978  0.93519522     0.09600
C39         C  0.00243291  0.03419570  0.95918240     0.20500
C40         C  0.47258543  0.45322661  0.97619923    -0.54300
C41         C  0.99282712  0.99939711  0.98470270     0.09700
C42         C  0.43579655  0.47235850  0.93561184    -0.53800
C43         C  0.45480714  0.01808956  0.94395482     0.10300
H44         H  0.02637973  0.46458361  0.91086491     0.14800
H45         H  0.02057347  0.07028573  0.96697315     0.00500
H46         H  0.46527942  0.42569984  0.99170017     0.15100
H47         H  0.40315844  0.45690644  0.92311814     0.14900
O48         O  0.40064925  0.47560836  0.53207490    -0.78300
C49         C  0.04713607  0.08821312  0.54573590     0.82700
O50         O  0.46737446  0.01340876  0.43360072    -0.79400
O51         O  0.10519278  0.02842874  0.48081532    -0.80900
O52         O  0.00236052  0.40821374  0.54512348    -0.80700
O53         O  0.40362582  0.41309259  0.54336448    -0.79300
Zn54       Zn  0.46214541  0.01400139  0.51235486     1.55700
O55         O  0.07000580  0.47272453  0.54413181    -0.80700
Cd56       Cd  0.45971675  0.42113576  0.51767447     1.59700
Cd57       Cd  0.49621157  0.47615312  0.45282307     1.59600
O58         O  0.43669593  0.37180299  0.48399996    -0.80700
O59         O  0.49340314  0.48225361  0.49869555    -1.91200
Cd60       Cd  0.05808500  0.01312831  0.51528654     1.59900
O61         O  0.46175698  0.40698202  0.43941796    -0.80700
O62         O  0.07314909  0.07249023  0.53748439    -0.79300
C63         C  0.45340313  0.03866800  0.44622293     0.83200
C64         C  0.38387327  0.43707186  0.54518706     0.82900
O65         O  0.00408440  0.06844568  0.53902511    -0.78300
C66         C  0.04497715  0.43170914  0.55270524     0.83700
O67         O  0.45061566  0.04105646  0.47515156    -0.78400
C68         C  0.44061397  0.37047280  0.45508299     0.83800
C69         C  0.10299887  0.02289942  0.45197429     0.84100
O70         O  0.06416227  0.00387958  0.43780664    -0.80800
C71         C  0.28474075  0.11418061  0.39368651     0.86700
C72         C  0.30885128  0.16049149  0.41020628    -0.53600
C73         C  0.35357760  0.18902089  0.40147654     0.09600
C74         C  0.37097220  0.16842287  0.37673503     0.20500
C75         C  0.29018313  0.12646927  0.35963334    -0.54300
C76         C  0.33514075  0.15486239  0.35079022     0.09700
C77         C  0.31675670  0.09430539  0.39832831    -0.53800
C78         C  0.36176187  0.12247894  0.39000207     0.10300
H79         H  0.29135614  0.17030163  0.42709449     0.14800
H80         H  0.40748106  0.19143183  0.36966661     0.00500
H81         H  0.26181421  0.11508381  0.34351950     0.15100
H82         H  0.30532683  0.06144675  0.40884169     0.14900
C83         C  0.13589164  0.26604325  0.60482567     0.86700
C84         C  0.18622892  0.29567380  0.59437136    -0.53600
C85         C  0.20630416  0.33998294  0.60335546     0.09600
C86         C  0.17440323  0.35096333  0.62290169     0.20500
C87         C  0.13826223  0.27201767  0.63986969    -0.54300
C88         C  0.15797316  0.31655159  0.64968850     0.09700
C89         C  0.11054922  0.29085696  0.59428177    -0.53800
C90         C  0.13030498  0.33511191  0.60352619     0.10300
H91         H  0.20413766  0.28295814  0.58005563     0.14800
H92         H  0.19111426  0.38727207  0.62956115     0.00500
H93         H  0.12470858  0.24377882  0.65535618     0.15100
H94         H  0.07946479  0.27453863  0.58019116     0.14900
O95         O  0.27455449  0.42141434  0.12729498    -0.78300
C96         C  0.13790993  0.40604067  0.12069911     0.82700
O97         O  0.21804617  0.40914314  0.23229498    -0.79400
O98         O  0.07289274  0.29165338  0.18663297    -0.80900
O99         O  0.16796421  0.25981067  0.11919804    -0.80700
O100        O  0.27238553  0.35508321  0.12324443    -0.79300
Zn101      Zn  0.22013658  0.40942498  0.15402067     1.55700
O102        O  0.10248465  0.26245261  0.12244225    -0.80700
Cd103      Cd  0.21330232  0.31242296  0.14811002     1.59700
Cd104      Cd  0.18257683  0.34320440  0.21298734     1.59600
O105        O  0.23270121  0.28505652  0.18300826    -0.80700
O106        O  0.18439587  0.34634768  0.16677955    -1.91200
Cd107      Cd  0.11950503  0.31747607  0.15108080     1.59900
O108        O  0.21531648  0.30750437  0.22673461    -0.80700
O109        O  0.11024859  0.36431641  0.12688519    -0.79300
C110        C  0.24250547  0.44774541  0.21946325     0.83200
C111        C  0.29150857  0.39741149  0.11725942     0.82900
O112        O  0.17985541  0.42670880  0.12999904    -0.78300
C113        C  0.12543438  0.24435836  0.11211601     0.83700
O114        O  0.24617680  0.45127658  0.19051525    -0.78400
C115        C  0.23220463  0.28628943  0.21213450     0.83800
C116        C  0.07499809  0.28891663  0.21555287     0.84100
O117        O  0.11397267  0.30729751  0.22957337    -0.80800
C118        C  0.05373489  0.49995156  0.06131843     0.86700
C119        C  0.50492868  0.47756196  0.07630512    -0.53600
C120        C  0.47608209  0.49221701  0.06555760     0.09600
C121        C  0.49801876  0.03257994  0.04093889     0.20500
C122        C  0.04430040  0.49416363  0.02691368    -0.54300
C123        C  0.01327217  0.01119452  0.01569017     0.09700
C124        C  0.07026897  0.05078234  0.06661256    -0.53800
C125        C  0.04340377  0.06817953  0.05679085     0.10300
H126        H  0.49407328  0.45104288  0.09333610     0.14800
H127        H  0.47621943  0.04645732  0.03233077     0.00500
H128        H  0.05637190  0.47627620  0.01213452     0.15100
H129        H  0.10228422  0.07211400  0.07884254     0.14900
C130        C  0.32078449  0.19731422  0.27417124     0.86700
C131        C  0.30096392  0.14748648  0.26388376    -0.53600
C132        C  0.32500573  0.12729757  0.27409714     0.09600
C133        C  0.36715860  0.15881484  0.29433107     0.20500
C134        C  0.32200383  0.19508609  0.30910710    -0.54300
C135        C  0.34553142  0.17435123  0.31978714     0.09700
C136        C  0.37176288  0.22157643  0.26475646    -0.56800
C137        C  0.39624463  0.20174868  0.27466769     0.10300
H138        H  0.27045820  0.12964109  0.24939758     0.14800
H139        H  0.38674454  0.14238293  0.30274297     0.00500
H140        H  0.30192588  0.20390849  0.32435064     0.15100
H141        H  0.38685938  0.25101614  0.24985769     0.14900
C142        C  0.40366909  0.42005065  0.07919259    -0.21100
C143        C  0.42556806  0.46721753  0.07360306    -0.09200
C144        C  0.39945563  0.48917983  0.07768951     0.29700
C145        C  0.35515866  0.46585511  0.09089110    -0.21100
C146        C  0.33533975  0.41981858  0.09932415    -0.09200
C147        C  0.35934309  0.39660251  0.09190451     0.29700
F148        F  0.34110923  0.35166111  0.09803882    -0.19700
H149        H  0.42141286  0.40115890  0.07444237     0.18100
H150        H  0.33685915  0.48432442  0.09524199     0.18100
F151        F  0.41681723  0.53334946  0.07004486    -0.19700
C152        C  0.10389439  0.15011867  0.05587684    -0.21100
C153        C  0.05846701  0.11657543  0.06369803    -0.09200
C154        C  0.03355863  0.12780818  0.08458439     0.29700
C155        C  0.05457168  0.17089660  0.09850594    -0.21100
C156        C  0.10132251  0.20293976  0.09269709    -0.09200
C157        C  0.12538792  0.19273130  0.07042007     0.29700
F158        F  0.17025510  0.22313716  0.06364187    -0.19700
H159        H  0.12398908  0.14196520  0.04015201     0.18100
H160        H  0.03542219  0.17778372  0.11577569     0.18100
F161        F  0.49178448  0.09548658  0.09462725    -0.19700
C162        C  0.07983377  0.40689460  0.08518110    -0.21100
C163        C  0.12055379  0.43105901  0.10250644    -0.09200
C164        C  0.14339691  0.47892352  0.10282187     0.29700
C165        C  0.12381127  0.50176209  0.08807282    -0.21100
C166        C  0.08089928  0.47746447  0.07270650    -0.09200
C167        C  0.06056990  0.42969074  0.07009434     0.29700
F168        F  0.02037894  0.40464660  0.05432309    -0.19700
H169        H  0.06221815  0.37005965  0.08376842     0.18100
H170        H  0.14241356  0.53837963  0.08971797     0.18100
F171        F  0.18360167  0.50383756  0.11857958    -0.19700
C172        C  0.27575881  0.24135236  0.27613887    -0.21100
C173        C  0.29520150  0.21919184  0.25940251    -0.09200
C174        C  0.29250817  0.21887696  0.22726154     0.29700
C175        C  0.27133086  0.23992096  0.21246714    -0.21100
C176        C  0.25251769  0.26253965  0.22903276    -0.09200
C177        C  0.25462852  0.26277224  0.26117229     0.29700
F178        F  0.23700478  0.28421298  0.27826341    -0.19700
H179        H  0.27743307  0.24340800  0.30069857     0.18100
H180        H  0.27039086  0.23894155  0.18775682     0.18100
F181        F  0.31124564  0.19869632  0.20990200    -0.19700
C182        C  0.30762601  0.02844944  0.22494493    -0.21100
C183        C  0.26696435  0.49027286  0.23793354    -0.09200
C184        C  0.24552833  0.49835359  0.26308269     0.29700
C185        C  0.27103126  0.04324246  0.27839275    -0.21100
C186        C  0.31048472  0.07971787  0.26507838    -0.09200
C187        C  0.32953852  0.07146567  0.23887389     0.29700
F188        F  0.36754392  0.10579347  0.22547354    -0.19700
H189        H  0.32195957  0.02374399  0.20388722     0.18100
H190        H  0.25546892  0.04916155  0.29840599     0.18100
F191        F  0.20373295  0.46515839  0.27331549    -0.19700
C192        C  0.49017276  0.23716696  0.21573165    -0.21100
C193        C  0.03026818  0.26267616  0.23240963    -0.09200
C194        C  0.02664359  0.26419287  0.26451019     0.29700
C195        C  0.48363098  0.24163501  0.27912057    -0.21100
C196        C  0.44300782  0.21700602  0.26162953    -0.09200
C197        C  0.44694842  0.21475397  0.22983163     0.29700
F198        F  0.40843978  0.19321260  0.21202325    -0.19700
H199        H  0.49126088  0.23487369  0.19109807     0.18100
H200        H  0.48118266  0.24489562  0.30357767     0.18100
F201        F  0.06486070  0.28981817  0.28191229    -0.19700
C202        C  0.18787759  0.05036904  0.45157242    -0.21100
C203        C  0.14746975  0.04001951  0.43516101    -0.09200
C204        C  0.15124991  0.04915263  0.40369094     0.29700
C205        C  0.19496590  0.07090500  0.38956927    -0.21100
C206        C  0.23590923  0.08402093  0.40652688    -0.09200
C207        C  0.23130830  0.07200165  0.43763558     0.29700
F208        F  0.26928064  0.08321227  0.45514455    -0.19700
H209        H  0.18617719  0.04299450  0.47570922     0.18100
H210        H  0.19600964  0.07883063  0.36571693     0.18100
F211        F  0.11312675  0.03938181  0.38681785    -0.19700
C212        C  0.39962337  0.27418014  0.39557955    -0.21100
C213        C  0.38056871  0.23576137  0.41450537    -0.09200
C214        C  0.38277137  0.24213172  0.44627923     0.29700
C215        C  0.40255818  0.28582143  0.45885442    -0.21100
C216        C  0.42055244  0.32463166  0.44020476    -0.09200
C217        C  0.41928674  0.31833459  0.40822567     0.29700
F218        F  0.43584240  0.35447233  0.38916272    -0.19700
H219        H  0.39760535  0.26987400  0.37099227     0.18100
H220        H  0.40336507  0.28904160  0.48349260     0.18100
F221        F  0.36534536  0.20586435  0.46529755    -0.19700
C222        C  0.39676136  0.07269477  0.38456399    -0.21100
C223        C  0.39738558  0.11055642  0.39842385    -0.09200
C224        C  0.42239903  0.12833576  0.42560083     0.29700
C225        C  0.44294752  0.10612698  0.44003720    -0.21100
C226        C  0.43933308  0.06607672  0.42748153    -0.09200
C227        C  0.41812385  0.05086224  0.39873599     0.29700
F228        F  0.39495163  0.49782551  0.39019636    -0.19700
H229        H  0.37681639  0.05809855  0.36387451     0.18100
H230        H  0.45966603  0.11896746  0.46194838     0.18100
F231        F  0.42270103  0.16422327  0.43985990    -0.19700
C232        C  0.33546245  0.39747339  0.59074005    -0.21100
C233        C  0.33999260  0.41892047  0.56258447    -0.09200
C234        C  0.30114754  0.41925641  0.55015551     0.29700
C235        C  0.25800686  0.39624312  0.56486679    -0.21100
C236        C  0.25322204  0.37342063  0.59241074    -0.09200
C237        C  0.29250753  0.37515749  0.60566354     0.29700
F238        F  0.28864600  0.35305179  0.63216687    -0.19700
H239        H  0.36498201  0.39692993  0.60074765     0.18100
H240        H  0.22772576  0.39385173  0.55380759     0.18100
F241        F  0.30399132  0.43846718  0.52257624    -0.19700
C242        C  0.08931192  0.17175987  0.54432375    -0.21100
C243        C  0.06849034  0.13215885  0.56167659    -0.09200
C244        C  0.07033444  0.13524932  0.59361715     0.29700
C245        C  0.09257787  0.17802062  0.60808908    -0.21100
C246        C  0.11332539  0.21833594  0.59073657    -0.09200
C247        C  0.11142038  0.21431081  0.55851891     0.29700
F248        F  0.13056385  0.25184766  0.54059323    -0.19700
H249        H  0.08842260  0.16968733  0.51961495     0.18100
H250        H  0.09284968  0.17878052  0.63266836     0.18100
F251        F  0.05079206  0.09694441  0.61074955    -0.19700
C252        C  0.11534635  0.43134976  0.57279028    -0.21100
C253        C  0.06663559  0.41002859  0.57042293    -0.09200
C254        C  0.03949062  0.36618266  0.58263383     0.29700
C255        C  0.06074927  0.34341511  0.59509421    -0.21100
C256        C  0.10935229  0.36339617  0.59540052    -0.09200
C257        C  0.13661272  0.40828572  0.58511356     0.29700
F258        F  0.18361750  0.42877251  0.58484779    -0.19700
H259        H  0.13720467  0.46509889  0.56365516     0.18100
H260        H  0.03897154  0.30924786  0.60362173     0.18100
F261        F  0.99238559  0.34441984  0.58159551    -0.19700
C262        C  0.41436021  0.35355992  0.88108789    -0.21100
C263        C  0.39992707  0.31350646  0.89774406    -0.09200
C264        C  0.40548268  0.31678101  0.92970103     0.29700
C265        C  0.42510750  0.35942877  0.94441479    -0.21100
C266        C  0.43942310  0.39961546  0.92754958    -0.09200
C267        C  0.43336267  0.39568390  0.89559212     0.29700
F268        F  0.94697695  0.43362507  0.87788202    -0.19700
H269        H  0.41043020  0.35249825  0.85649807     0.18100
H270        H  0.42879976  0.36026198  0.96890586     0.18100
F271        F  0.39244181  0.27902119  0.94674181    -0.19700
C272        C  0.12463811  0.08221765  0.87734184    -0.21100
C273        C  0.16494020  0.10146654  0.89560302    -0.09200
C274        C  0.15974000  0.10138287  0.92762670     0.29700
C275        C  0.11515373  0.07903959  0.94077505    -0.21100
C276        C  0.07548488  0.05666270  0.92220617    -0.09200
C277        C  0.08061219  0.06000091  0.89038561     0.29700
F278        F  0.04284624  0.03974309  0.87179616    -0.19700
H279        H  0.12694278  0.08261616  0.85267037     0.18100
H280        H  0.11172836  0.07684737  0.96539559     0.18100
F281        F  0.19743288  0.12110699  0.94623864    -0.19700
C282        C  0.39249362  0.03949337  0.94256534    -0.21100
C283        C  0.43712795  0.04847398  0.93398497    -0.09200
C284        C  0.46126714  0.08127685  0.91154542     0.29700
C285        C  0.44015820  0.10271958  0.89678404    -0.21100
C286        C  0.39502526  0.09280636  0.90456438    -0.09200
C287        C  0.37180537  0.06205757  0.92835281     0.29700
F288        F  0.32800843  0.05139200  0.93627586    -0.19700
H289        H  0.37303763  0.01373884  0.95946893     0.18100
H290        H  0.45869330  0.12631203  0.87853981     0.18100
F291        F  0.50386744  0.09008567  0.90216631    -0.19700
C292        C  0.27322211  0.28461070  0.75804312    -0.21100
C293        C  0.24633044  0.23925564  0.76751826    -0.09200
C294        C  0.19803453  0.21642200  0.76207378     0.29700
C295        C  0.17724363  0.23943468  0.74896004    -0.21100
C296        C  0.20372400  0.28560405  0.74149350    -0.09200
C297        C  0.25238849  0.30748484  0.74503579     0.29700
F298        F  0.28009315  0.35114557  0.73595289    -0.19700
H299        H  0.31052655  0.30289414  0.76121728     0.18100
H300        H  0.14026235  0.22143089  0.74583095     0.18100
F301        F  0.17041638  0.17242003  0.77045980    -0.19700
C302        C  0.99435943  0.20776102  0.75859398    -0.21100
C303        C  0.46528136  0.22748985  0.75965071    -0.09200
C304        C  0.47919509  0.26829214  0.74386929     0.29700
C305        C  0.02225337  0.28947956  0.72853827    -0.21100
C306        C  0.05366134  0.27313334  0.73098265    -0.09200
C307        C  0.03791819  0.23028628  0.74428915     0.29700
F308        F  0.06560291  0.21169333  0.74574852    -0.19700
H309        H  0.98440466  0.17629555  0.77047494     0.18100
H310        H  0.03254980  0.32146601  0.71724151     0.18100
F311        F  0.45238778  0.28817295  0.74360147    -0.19700
C312        C  0.17157727  0.44834470  0.75131683    -0.21100
C313        C  0.19709600  0.42986206  0.73757497    -0.09200
C314        C  0.24583689  0.45769116  0.73603604     0.29700
C315        C  0.27019060  0.99995983  0.75246660    -0.21100
C316        C  0.24331800  0.01653707  0.76637395    -0.09200
C317        C  0.19395980  0.49033393  0.76634907     0.29700
F318        F  0.16753779  0.50490759  0.78092557    -0.19700
H319        H  0.13425032  0.43086704  0.75126698     0.18100
H320        H  0.30774152  0.01912618  0.75383857     0.18100
F321        F  0.27203064  0.44313716  0.72115634    -0.19700
O322        O  0.24543843  0.67467646  0.79278398    -0.78300
C323        C  0.26680372  0.55785832  0.78607818     0.82700
O324        O  0.25275551  0.63568492  0.89722632    -0.79400
O325        O  0.37907974  0.60981974  0.85658697    -0.80900
O326        O  0.40950080  0.73442013  0.78926997    -0.80700
O327        O  0.31196466  0.73986539  0.79198575    -0.79300
Zn328      Zn  0.25910078  0.63360647  0.81859272     1.55700
O329        O  0.41043594  0.66934829  0.79174448    -0.80700
Cd330      Cd  0.35502445  0.72465337  0.81705768     1.59700
Cd331      Cd  0.32145751  0.66425353  0.88079860     1.59600
O332        O  0.38010745  0.77089040  0.85210896    -0.80700
O333        O  0.32180999  0.66242911  0.83442257    -1.91200
Cd334      Cd  0.35421947  0.62941300  0.81969719     1.59900
O335        O  0.35794031  0.73240641  0.89577136    -0.80700
O336        O  0.30885573  0.57274644  0.79415504    -0.79300
C337        C  0.21478449  0.61817211  0.88205548     0.83200
C338        C  0.26929277  0.71604272  0.78468808     0.82900
O339        O  0.24470566  0.57805028  0.79398027    -0.78300
C340        C  0.42706873  0.70977796  0.78180703     0.83700
O341        O  0.21477243  0.61562540  0.85307164    -0.78400
C342        C  0.37824761  0.76993919  0.88115922     0.83800
C343        C  0.37564470  0.61113582  0.88557058     0.84100
O344        O  0.35361014  0.62883692  0.89843294    -0.80800
C345        C  0.17757655  0.88061517  0.72680776     0.86700
C346        C  0.20072531  0.85572895  0.74096166    -0.53600
C347        C  0.18305718  0.81166940  0.73154254     0.09600
C348        C  0.14097681  0.79531496  0.70971614     0.20500
C349        C  0.17933349  0.87408403  0.69226065    -0.54300
C350        C  0.16019752  0.82952683  0.68277737     0.09700
C351        C  0.12642850  0.85079735  0.73542156    -0.53800
C352        C  0.10649800  0.80651743  0.72625705     0.10300
H353        H  0.22911655  0.87189566  0.75724033     0.14800
H354        H  0.12533791  0.75900069  0.70330544     0.00500
H355        H  0.19430314  0.90299600  0.67712339     0.15100
H356        H  0.10720506  0.86231288  0.74926193     0.14900
C357        C  0.46070722  0.94916239  0.94037090     0.86700
C358        C  0.00773708  0.97927140  0.92587247    -0.53600
C359        C  0.03329589  0.52196094  0.93649040     0.09600
C360        C  0.00583770  0.53293909  0.96012442     0.20500
C361        C  0.47094465  0.95508771  0.97478731    -0.54300
C362        C  0.99572845  0.49815099  0.98575954     0.09700
C363        C  0.43303321  0.97360696  0.93462445    -0.53800
C364        C  0.45796177  0.51689669  0.94473417     0.10300
H365        H  0.02297257  0.96648147  0.90930410     0.14800
H366        H  0.02413235  0.56905981  0.96784800     0.00500
H367        H  0.46422526  0.92770084  0.99023454     0.15100
H368        H  0.40028784  0.95788299  0.92225442     0.14900
O369        O  0.40053941  0.97346025  0.53427322    -0.78300
C370        C  0.04209010  0.58745229  0.54611394     0.82700
O371        O  0.46752068  0.51172598  0.43134885    -0.79400
O372        O  0.10525233  0.53349737  0.48225089    -0.80900
O373        O  0.00204566  0.90993238  0.54736692    -0.80700
O374        O  0.40112297  0.90876484  0.54130667    -0.79300
Zn375      Zn  0.46156102  0.51540013  0.50955114     1.55700
O376        O  0.07002830  0.97404779  0.54539473    -0.80700
Cd377      Cd  0.45986932  0.91936984  0.51773205     1.59700
Cd378      Cd  0.49501550  0.97558313  0.45326198     1.59600
O379        O  0.44090577  0.87038660  0.48398788    -0.80700
O380        O  0.49316766  0.98085735  0.49930012    -1.91200
Cd381      Cd  0.05675943  0.51380882  0.51645498     1.59900
O382        O  0.45999562  0.90651225  0.43940564    -0.80700
O383        O  0.06826041  0.57061539  0.54112752    -0.79300
C384        C  0.45274890  0.53696671  0.44285900     0.83200
C385        C  0.38210359  0.93319073  0.54495940     0.82900
O386        O  0.00076716  0.56919100  0.53588509    -0.78300
C387        C  0.04443498  0.93392592  0.55534241     0.83700
O388        O  0.44962792  0.54078763  0.47160419    -0.78400
C389        C  0.44268445  0.86973655  0.45490117     0.83800
C390        C  0.10365711  0.52691234  0.45350175     0.84100
O391        O  0.06511979  0.50515343  0.43912241    -0.80800
C392        C  0.28499454  0.61655159  0.39399525     0.86700
C393        C  0.31201239  0.66275405  0.41040894    -0.53600
C394        C  0.35652195  0.68942276  0.40064639     0.09600
C395        C  0.37093766  0.66717692  0.37520474     0.20500
C396        C  0.28936130  0.62875725  0.35992932    -0.54300
C397        C  0.33412686  0.65527601  0.35012868     0.09700
C398        C  0.31498772  0.59419899  0.39749691    -0.53800
C399        C  0.35992034  0.62043686  0.38816760     0.10300
H400        H  0.29663911  0.67400895  0.42791560     0.14800
H401        H  0.40730116  0.68874932  0.36733881     0.00500
H402        H  0.26053958  0.61839135  0.34439663     0.15100
H403        H  0.30228783  0.56104920  0.40787468     0.14900
C404        C  0.12953652  0.76533718  0.60488832     0.86700
C405        C  0.17918349  0.79313220  0.59287130    -0.53600
C406        C  0.20187313  0.83751505  0.60184589     0.09600
C407        C  0.17278249  0.85043141  0.62288834     0.20500
C408        C  0.13465023  0.77141607  0.63989623    -0.54300
C409        C  0.15679972  0.81605268  0.64968713     0.09700
C410        C  0.10536323  0.79193968  0.59592473    -0.53800
C411        C  0.12749149  0.83632359  0.60525676     0.10300
H412        H  0.19501623  0.77889738  0.57795357     0.14800
H413        H  0.19158487  0.88673559  0.62959485     0.00500
H414        H  0.12050036  0.74324151  0.65544835     0.15100
H415        H  0.07313404  0.77659264  0.58298822     0.14900
O416        O  0.27210109  0.92397579  0.12665383    -0.78300
C417        C  0.13425617  0.90582682  0.11980830     0.82700
O418        O  0.21729321  0.91090848  0.23205678    -0.79400
O419        O  0.07207068  0.79217021  0.18615033    -0.80900
O420        O  0.16762985  0.76134773  0.11918160    -0.80700
O421        O  0.27068426  0.85797238  0.12274449    -0.79300
Zn422      Zn  0.21727008  0.91089789  0.15345224     1.55700
O423        O  0.10133408  0.76242260  0.12216397    -0.80700
Cd424      Cd  0.21245032  0.81458200  0.14781616     1.59700
Cd425      Cd  0.18176228  0.84468761  0.21270931     1.59600
O426        O  0.23312586  0.78771626  0.18239363    -0.80700
O427        O  0.18279740  0.84779960  0.16639306    -1.91200
Cd428      Cd  0.11791726  0.81800929  0.15036390     1.59900
O429        O  0.21530019  0.80934016  0.22625650    -0.80700
O430        O  0.10718846  0.86390096  0.12581804    -0.79300
C431        C  0.24074227  0.94950343  0.21897808     0.83200
C432        C  0.28938083  0.90022534  0.11665510     0.82900
O433        O  0.17605816  0.92704008  0.12938676    -0.78300
C434        C  0.12497055  0.74490177  0.11207924     0.83700
O435        O  0.24294019  0.95271238  0.18997045    -0.78400
C436        C  0.23260835  0.78858433  0.21151914     0.83800
C437        C  0.07410522  0.78912286  0.21504531     0.84100
O438        O  0.11301817  0.80778935  0.22919656    -0.80800
C439        C  0.04988701  0.99979598  0.06032577     0.86700
C440        C  0.50187450  0.97806953  0.07479549    -0.53600
C441        C  0.47351952  0.99342842  0.06419248     0.09600
C442        C  0.50008287  0.53115212  0.04210376     0.20500
C443        C  0.04075916  0.99451726  0.02589793    -0.54300
C444        C  0.01636353  0.51028484  0.01669494     0.09700
C445        C  0.07381454  0.55096109  0.06734239    -0.53800
C446        C  0.04650718  0.56790175  0.05754302     0.10300
H447        H  0.49062808  0.95130188  0.09167448     0.14800
H448        H  0.47794224  0.54457337  0.03339662     0.00500
H449        H  0.05271224  0.97657966  0.01106835     0.15100
H450        H  0.10592194  0.57256910  0.07939805     0.14900
C451        C  0.31861154  0.69618845  0.27302687     0.86700
C452        C  0.29804388  0.64600799  0.26323891    -0.53600
C453        C  0.32196974  0.62567280  0.27357455     0.09600
C454        C  0.36454897  0.65729064  0.29341443     0.20500
C455        C  0.32040724  0.69464583  0.30799581    -0.54300
C456        C  0.34372382  0.67375266  0.31879932     0.09700
C457        C  0.36938402  0.71958613  0.26322095    -0.56800
C458        C  0.39358136  0.69951700  0.27326446     0.10300
H459        H  0.26732235  0.62813174  0.24895066     0.14800
H460        H  0.38394071  0.64069966  0.30190579     0.00500
H461        H  0.30079717  0.70407832  0.32322915     0.15100
H462        H  0.38457758  0.74873138  0.24806719     0.14900
C463        C  0.40053734  0.92190566  0.07767632    -0.21100
C464        C  0.42307277  0.96915473  0.07241805    -0.09200
C465        C  0.39775453  0.99181878  0.07716400     0.29700
C466        C  0.35354319  0.96888900  0.09058875    -0.21100
C467        C  0.33311774  0.92263189  0.09861879    -0.09200
C468        C  0.35641020  0.89891193  0.09064459     0.29700
F469        F  0.33766833  0.85381802  0.09646109    -0.19700
H470        H  0.41768020  0.90256950  0.07249382     0.18100
H471        H  0.33582915  0.98778662  0.09543697     0.18100
F472        F  0.41586359  0.03625519  0.06996367    -0.19700
C473        C  0.10650326  0.65018783  0.05710799    -0.21100
C474        C  0.06099362  0.61626364  0.06441070    -0.09200
C475        C  0.03499952  0.62730730  0.08450049     0.29700
C476        C  0.05499254  0.67058634  0.09816049    -0.21100
C477        C  0.10177062  0.70309912  0.09285922    -0.09200
C478        C  0.12692337  0.69301009  0.07134570     0.29700
F479        F  0.17185096  0.72380642  0.06502512    -0.19700
H480        H  0.12743094  0.64229861  0.04196547     0.18100
H481        H  0.03497674  0.67732964  0.11483331     0.18100
F482        F  0.49192895  0.59426343  0.09407659    -0.19700
C483        C  0.07560685  0.90636269  0.08438562    -0.21100
C484        C  0.11652212  0.93058123  0.10156334    -0.09200
C485        C  0.13948424  0.97845973  0.10160160     0.29700
C486        C  0.11993010  0.00125723  0.08680186    -0.21100
C487        C  0.07682651  0.97700507  0.07167977    -0.09200
C488        C  0.05633381  0.92918461  0.06923107     0.29700
F489        F  0.01609735  0.90418155  0.05349379    -0.19700
H490        H  0.05790224  0.86951481  0.08311901     0.18100
H491        H  0.13884973  0.03789905  0.08816194     0.18100
F492        F  0.17991257  0.00352668  0.11709309    -0.19700
C493        C  0.27655228  0.74312445  0.27510982    -0.21100
C494        C  0.29358246  0.71881289  0.25831440    -0.09200
C495        C  0.28979278  0.71784971  0.22620559     0.29700
C496        C  0.26958809  0.74004347  0.21155592    -0.21100
C497        C  0.25286823  0.76448724  0.22822352    -0.09200
C498        C  0.25647009  0.76569770  0.26030543     0.29700
F499        F  0.24148829  0.78936144  0.27749345    -0.19700
H500        H  0.27955146  0.74616725  0.29961222     0.18100
H501        H  0.26757350  0.73834938  0.18687136     0.18100
F502        F  0.30659469  0.69600035  0.20872483    -0.19700
C503        C  0.31037909  0.52556125  0.22811107    -0.21100
C504        C  0.26663521  0.99236780  0.23712063    -0.09200
C505        C  0.24957069  0.99963642  0.26482592     0.29700
C506        C  0.26529188  0.54210274  0.27617487    -0.21100
C507        C  0.30736368  0.57789744  0.26508400    -0.09200
C508        C  0.33072003  0.56878980  0.24180003     0.29700
F509        F  0.37150234  0.60253922  0.23073891    -0.19700
H510        H  0.32781422  0.52007972  0.20898454     0.18100
H511        H  0.24667837  0.54865819  0.29402069     0.18100
F512        F  0.21029168  0.96575691  0.27748279    -0.19700
C513        C  0.48760320  0.73612772  0.21450197    -0.21100
C514        C  0.02922849  0.76216403  0.23161240    -0.09200
C515        C  0.02541752  0.76088108  0.26378652     0.29700
C516        C  0.48072034  0.73693111  0.27804477    -0.21100
C517        C  0.44018441  0.71414049  0.26026254    -0.09200
C518        C  0.44428756  0.71308673  0.22841588     0.29700
F519        F  0.40583873  0.69184297  0.21049146    -0.19700
H520        H  0.48880846  0.73516698  0.18981258     0.18100
H521        H  0.47814527  0.73868149  0.30261918     0.18100
F522        F  0.06370495  0.78372738  0.28163159    -0.19700
C523        C  0.18875612  0.55497077  0.45293482    -0.21100
C524        C  0.14833130  0.54545598  0.43685636    -0.09200
C525        C  0.15189483  0.55583393  0.40562705     0.29700
C526        C  0.19530737  0.57701886  0.39119304    -0.21100
C527        C  0.23630921  0.58834353  0.40758832    -0.09200
C528        C  0.23200901  0.57597737  0.43863200     0.29700
F529        F  0.27007365  0.58570596  0.45561138    -0.19700
H530        H  0.18708372  0.54684445  0.47690945     0.18100
H531        H  0.19598652  0.58562297  0.36760243     0.18100
F532        F  0.11381463  0.54772968  0.38928663    -0.19700
C533        C  0.39660518  0.77424670  0.39469761    -0.21100
C534        C  0.38548603  0.73625500  0.41295544    -0.09200
C535        C  0.39547778  0.74278963  0.44427532     0.29700
C536        C  0.41496838  0.78627790  0.45726797    -0.21100
C537        C  0.42452332  0.82447284  0.43948425    -0.09200
C538        C  0.41586032  0.81807019  0.40777705     0.29700
F539        F  0.42394893  0.85356698  0.38964212    -0.19700
H540        H  0.38818358  0.76962050  0.37057924     0.18100
H541        H  0.42174137  0.78978566  0.48159685     0.18100
F542        F  0.38505084  0.70672759  0.46252181    -0.19700
C543        C  0.38503184  0.56234280  0.38478817    -0.21100
C544        C  0.39413350  0.60566049  0.39467493    -0.09200
C545        C  0.42861662  0.62903381  0.41681339     0.29700
C546        C  0.44989630  0.60733356  0.43110958    -0.21100
C547        C  0.43802791  0.56255376  0.42297237    -0.09200
C548        C  0.40722590  0.54106761  0.39855254     0.29700
F549        F  0.41420413  0.01259113  0.38573532    -0.19700
H550        H  0.35817702  0.54366032  0.36793670     0.18100
H551        H  0.47388462  0.62461204  0.44974160     0.18100
F552        F  0.43805211  0.67075269  0.42696588    -0.19700
C553        C  0.32871446  0.88191246  0.58525009    -0.21100
C554        C  0.33759635  0.91368996  0.56206549    -0.09200
C555        C  0.30265652  0.92403593  0.55450324     0.29700
C556        C  0.25911643  0.90125599  0.56892587    -0.21100
C557        C  0.25006106  0.86852994  0.59140688    -0.09200
C558        C  0.28556126  0.85969723  0.59982543     0.29700
F559        F  0.27768512  0.82798223  0.62130697    -0.19700
H560        H  0.35501170  0.87350046  0.59168484     0.18100
H561        H  0.23168624  0.90719100  0.56121148     0.18100
F562        F  0.30937195  0.95363837  0.53172806    -0.19700
C563        C  0.07803319  0.67062519  0.54475357    -0.21100
C564        C  0.06146971  0.63122242  0.56211290    -0.09200
C565        C  0.06554857  0.63453246  0.59398307     0.29700
C566        C  0.08690526  0.67736936  0.60834714    -0.21100
C567        C  0.10471977  0.71752589  0.59094243    -0.09200
C568        C  0.09954252  0.71325399  0.55882848     0.29700
F569        F  0.11582148  0.75062071  0.54086509    -0.19700
H570        H  0.07506552  0.66837701  0.52009205     0.18100
H571        H  0.08956048  0.67830389  0.63286198     0.18100
F572        F  0.04895146  0.59639291  0.61114638    -0.19700
C573        C  0.11405548  0.93468714  0.57751896    -0.21100
C574        C  0.06542754  0.91347004  0.57479957    -0.09200
C575        C  0.03791595  0.87012199  0.58756058     0.29700
C576        C  0.05880046  0.84686599  0.59973872    -0.21100
C577        C  0.10732735  0.86596508  0.59920076    -0.09200
C578        C  0.13494736  0.91120151  0.58963167     0.29700
F579        F  0.18190260  0.93160284  0.58954690    -0.19700
H580        H  0.13617011  0.96839272  0.56839257     0.18100
H581        H  0.03672190  0.81275834  0.60826497     0.18100
F582        F  0.99082188  0.84898828  0.58679880    -0.19700
C583        C  0.41308757  0.85410237  0.88047154    -0.21100
C584        C  0.39923249  0.81443608  0.89753572    -0.09200
C585        C  0.40449704  0.81844584  0.92947976     0.29700
C586        C  0.42352284  0.86134055  0.94376284    -0.21100
C587        C  0.43762437  0.90118650  0.92650240    -0.09200
C588        C  0.43151479  0.89653254  0.89457596     0.29700
F589        F  0.94338259  0.93329342  0.87685495    -0.19700
H590        H  0.40930566  0.85251138  0.85587435     0.18100
H591        H  0.42680821  0.86251152  0.96825226     0.18100
F592        F  0.39167574  0.78115629  0.94697642    -0.19700
C593        C  0.12860104  0.57937322  0.87898150    -0.21100
C594        C  0.16878200  0.59947626  0.89736251    -0.09200
C595        C  0.16338468  0.59977993  0.92934034     0.29700
C596        C  0.11868621  0.57739760  0.94234635    -0.21100
C597        C  0.07918418  0.55462018  0.92364797    -0.09200
C598        C  0.08455284  0.55719807  0.89185608     0.29700
F599        F  0.04698362  0.53632090  0.87313588    -0.19700
H600        H  0.13098773  0.57921684  0.85432486     0.18100
H601        H  0.11504089  0.57564815  0.96695928     0.18100
F602        F  0.20096409  0.62017253  0.94801891    -0.19700
C603        C  0.39639098  0.53929619  0.94302420    -0.21100
C604        C  0.44072116  0.54751716  0.93432724    -0.09200
C605        C  0.46456300  0.57931906  0.91126768     0.29700
C606        C  0.44352472  0.60069703  0.89620562    -0.21100
C607        C  0.39878555  0.59177834  0.90430807    -0.09200
C608        C  0.37582415  0.56178503  0.92852409     0.29700
F609        F  0.33231161  0.55178146  0.93667764    -0.19700
H610        H  0.37703485  0.51416310  0.96029826     0.18100
H611        H  0.46185873  0.62358996  0.87759855     0.18100
F612        F  0.50680227  0.58724050  0.90170569    -0.19700
C613        C  0.27427740  0.78225093  0.75658409    -0.21100
C614        C  0.24696905  0.73767423  0.76742516    -0.09200
C615        C  0.19845963  0.71568318  0.76301658     0.29700
C616        C  0.17812129  0.73896511  0.74966421    -0.21100
C617        C  0.20509310  0.78455479  0.74097212    -0.09200
C618        C  0.25380756  0.80537617  0.74340583     0.29700
F619        F  0.28186029  0.84831546  0.73315301    -0.19700
H620        H  0.31177410  0.79986097  0.75888549     0.18100
H621        H  0.14071565  0.72150610  0.74734437     0.18100
F622        F  0.17037245  0.67243805  0.77271179    -0.19700
C623        C  0.99694681  0.70943918  0.76050493    -0.21100
C624        C  0.46886378  0.72941312  0.76199826    -0.09200
C625        C  0.48252092  0.76980282  0.74574437     0.29700
C626        C  0.02550074  0.79213996  0.73161490    -0.21100
C627        C  0.05634341  0.77499687  0.73310618    -0.09200
C628        C  0.04037345  0.73193961  0.74610412     0.29700
F629        F  0.06763670  0.71289502  0.74703360    -0.19700
H630        H  0.98674947  0.67758883  0.77193629     0.18100
H631        H  0.03602647  0.82446989  0.72074530     0.18100
F632        F  0.45533226  0.78925808  0.74493054    -0.19700
C633        C  0.17378330  0.94997643  0.74758375    -0.21100
C634        C  0.20021089  0.93051722  0.73690487    -0.09200
C635        C  0.24900939  0.95790405  0.73733560     0.29700
C636        C  0.26830372  0.49966632  0.75129459    -0.21100
C637        C  0.24271568  0.51566132  0.76752314    -0.09200
C638        C  0.19487689  0.99206877  0.76249326     0.29700
F639        F  0.16742033  0.00765702  0.77416370    -0.19700
H640        H  0.13659659  0.93307968  0.74491995     0.18100
H641        H  0.30588039  0.51926113  0.75089484     0.18100
F642        F  0.27633993  0.94307616  0.72441468    -0.19700
O643        O  0.74469274  0.17562464  0.79176016    -0.78300
C644        C  0.76623272  0.05863677  0.78535883     0.82700
O645        O  0.74916732  0.13758040  0.89559138    -0.79400
O646        O  0.87703939  0.11182029  0.85676183    -0.80900
O647        O  0.90723863  0.23378100  0.78735967    -0.80700
O648        O  0.81075909  0.24144655  0.79214849    -0.79300
Zn649      Zn  0.75711831  0.13389796  0.81739736     1.55700
O650        O  0.90843763  0.16899860  0.79100706    -0.80700
Cd651      Cd  0.85402222  0.22537599  0.81625402     1.59700
Cd652      Cd  0.81793050  0.16468950  0.87979778     1.59600
O653        O  0.88094541  0.27126126  0.85160093    -0.80700
O654        O  0.81964289  0.16314612  0.83354327    -1.91200
Cd655      Cd  0.85253367  0.13046082  0.81949241     1.59900
O656        O  0.85565405  0.23233568  0.89496469    -0.80700
O657        O  0.80779220  0.07352751  0.79446137    -0.79300
C658        C  0.71127064  0.11965601  0.88034057     0.83200
C659        C  0.76824634  0.21736214  0.78447755     0.82900
O660        O  0.74359657  0.07864142  0.79244323    -0.78300
C661        C  0.92462558  0.20884875  0.78017276     0.83700
O662        O  0.71139396  0.11594661  0.85140412    -0.78400
C663        C  0.87806036  0.26990967  0.88064478     0.83800
C664        C  0.87210927  0.11221557  0.88563657     0.84100
O665        O  0.84873187  0.12870086  0.89813217    -0.80800
C666        C  0.67435792  0.38003042  0.72699906     0.86700
C667        C  0.69736037  0.35533870  0.74151218    -0.53600
C668        C  0.68031353  0.31151184  0.73196396     0.09600
C669        C  0.63903061  0.29501409  0.70947628     0.20500
C670        C  0.67732431  0.37397160  0.69243402    -0.54300
C671        C  0.65886752  0.32952902  0.68277738     0.09700
C672        C  0.62283006  0.34970758  0.73469047    -0.53800
C673        C  0.60361182  0.30551645  0.72526764     0.10300
H674        H  0.72551936  0.37161826  0.75795417     0.14800
H675        H  0.62402755  0.25881901  0.70294577     0.00500
H676        H  0.69274763  0.40302710  0.67741905     0.15100
H677        H  0.60257647  0.36073887  0.74775745     0.14900
C678        C  0.96322618  0.44777834  0.94155340     0.86700
C679        C  0.51072975  0.47711512  0.92742194    -0.53600
C680        C  0.53018046  0.02387613  0.93515024     0.09600
C681        C  0.50267764  0.03425490  0.95912705     0.20500
C682        C  0.97310981  0.45365805  0.97603445    -0.54300
C683        C  0.49319786  0.99944729  0.98461205     0.09700
C684        C  0.93611439  0.47269753  0.93553357    -0.53800
C685        C  0.95457660  0.01819770  0.94404050     0.10300
H686        H  0.52598871  0.46400398  0.91110094     0.14800
H687        H  0.52067007  0.07032756  0.96695223     0.00500
H688        H  0.96592369  0.42613047  0.99150563     0.15100
H689        H  0.90342191  0.45717620  0.92309939     0.14900
O690        O  0.89982015  0.47465207  0.53194628    -0.78300
C691        C  0.54682269  0.08790822  0.54593855     0.82700
O692        O  0.96761280  0.01334860  0.43311841    -0.79400
O693        O  0.60504410  0.02807841  0.48077532    -0.80900
O694        O  0.50287607  0.40886567  0.54490557    -0.80700
O695        O  0.90301389  0.41231336  0.54349119    -0.79300
Zn696      Zn  0.96246538  0.01447278  0.51185436     1.55700
O697        O  0.57076051  0.47309385  0.54368291    -0.80700
Cd698      Cd  0.95910528  0.42030058  0.51782430     1.59700
Cd699      Cd  0.99566630  0.47529506  0.45299369     1.59600
O700        O  0.93610394  0.37085954  0.48417321    -0.80700
O701        O  0.99268737  0.48145075  0.49883793    -1.91200
Cd702      Cd  0.55800987  0.01304883  0.51528670     1.59900
O703        O  0.96125099  0.40612434  0.43962583    -0.80700
O704        O  0.57302429  0.07269662  0.53707320    -0.79300
C705        C  0.95364029  0.03866917  0.44564218     0.83200
C706        C  0.88317848  0.43622882  0.54518319     0.82900
O707        O  0.50353897  0.06759816  0.53987245    -0.78300
C708        C  0.54556426  0.43214944  0.55234806     0.83700
O709        O  0.95085261  0.04119032  0.47455372    -0.78400
C710        C  0.94007739  0.36958331  0.45525397     0.83800
C711        C  0.60272885  0.02250397  0.45193864     0.84100
O712        O  0.56382374  0.00359091  0.43784844    -0.80800
C713        C  0.78433633  0.11343902  0.39340917     0.86700
C714        C  0.80836850  0.15971251  0.40997517    -0.53600
C715        C  0.85306238  0.18835686  0.40123625     0.09600
C716        C  0.87051108  0.16790500  0.37642507     0.20500
C717        C  0.78970926  0.12579183  0.35936211    -0.54300
C718        C  0.83463967  0.15428421  0.35050582     0.09700
C719        C  0.81648770  0.09368345  0.39796590    -0.53800
C720        C  0.86146523  0.12198291  0.38961313     0.10300
H721        H  0.79084781  0.16940260  0.42692071     0.14800
H722        H  0.90699268  0.19100489  0.36934194     0.00500
H723        H  0.76132403  0.11429737  0.34325269     0.15100
H724        H  0.80516873  0.06081010  0.40842199     0.14900
C725        C  0.63557570  0.26580147  0.60492590     0.86700
C726        C  0.68622975  0.29530484  0.59499695    -0.53600
C727        C  0.70614151  0.33965661  0.60383576     0.09600
C728        C  0.67396012  0.35071962  0.62296877     0.20500
C729        C  0.63730353  0.27175290  0.63995366    -0.54300
C730        C  0.65704848  0.31629435  0.64975364     0.09700
C731        C  0.61069236  0.29077071  0.59384584    -0.53800
C732        C  0.63027921  0.33497063  0.60318600     0.10300
H733        H  0.70444057  0.28255897  0.58101312     0.14800
H734        H  0.69060023  0.38703497  0.62960451     0.00500
H735        H  0.62393894  0.24350198  0.65543748     0.15100
H736        H  0.57995233  0.27455580  0.57943145     0.14900
O737        O  0.77488833  0.42168122  0.12693567    -0.78300
C738        C  0.63785672  0.40582356  0.12067488     0.82700
O739        O  0.71913884  0.40975387  0.23207600    -0.79400
O740        O  0.57358885  0.29195853  0.18684362    -0.80900
O741        O  0.66852976  0.26010375  0.11908701    -0.80700
O742        O  0.77297167  0.35545092  0.12310647    -0.79300
Zn743      Zn  0.72047944  0.40964899  0.15374774     1.55700
O744        O  0.60284574  0.26230291  0.12264841    -0.80700
Cd745      Cd  0.71385339  0.31278994  0.14795551     1.59700
Cd746      Cd  0.68330099  0.34373357  0.21291577     1.59600
O747        O  0.73315343  0.28537983  0.18283904    -0.80700
O748        O  0.68491927  0.34664842  0.16668190    -1.91200
Cd749      Cd  0.61993579  0.31749561  0.15115615     1.59900
O750        O  0.71583673  0.30783859  0.22659128    -0.80700
O751        O  0.61034855  0.36410409  0.12695485    -0.79300
C752        C  0.74337051  0.44829955  0.21912784     0.83200
C753        C  0.79198304  0.39773756  0.11701389     0.82900
O754        O  0.67988079  0.42663392  0.12982392    -0.78300
C755        C  0.62589417  0.24438680  0.11219244     0.83700
O756        O  0.74665132  0.45166314  0.19015738    -0.78400
C757        C  0.73261544  0.28655010  0.21196261     0.83800
C758        C  0.57576062  0.28957021  0.21578471     0.84100
O759        O  0.61478216  0.30812540  0.22975432    -0.80800
C760        C  0.55305149  0.49935862  0.06153258     0.86700
C761        C  0.00560837  0.47806325  0.07609647    -0.53600
C762        C  0.97670598  0.49268919  0.06540228     0.09600
C763        C  0.99755701  0.03246130  0.04103493     0.20500
C764        C  0.54363264  0.49353422  0.02712885    -0.54300
C765        C  0.51366703  0.01125285  0.01559294     0.09700
C766        C  0.57063996  0.05066742  0.06655647    -0.53800
C767        C  0.54387818  0.06818534  0.05674385     0.10300
H768        H  0.99480720  0.45150918  0.09309615     0.14800
H769        H  0.97567026  0.04623954  0.03242616     0.00500
H770        H  0.55567389  0.47559295  0.01237663     0.15100
H771        H  0.60264171  0.07190620  0.07882612     0.14900
C772        C  0.82025220  0.19664673  0.27386933     0.86700
C773        C  0.80013211  0.14674922  0.26367371    -0.53600
C774        C  0.82405035  0.12642233  0.27387090     0.09600
C775        C  0.86635700  0.15786999  0.29400555     0.20500
C776        C  0.82160485  0.19454261  0.30880974    -0.54300
C777        C  0.84500039  0.17367545  0.31947745     0.09700
C778        C  0.87117596  0.22063867  0.26433962    -0.56800
C779        C  0.89550522  0.20066648  0.27425715     0.10300
H780        H  0.76951178  0.12895394  0.24928040     0.14800
H781        H  0.88583023  0.14131841  0.30241122     0.00500
H782        H  0.80166454  0.20351123  0.32407430     0.15100
H783        H  0.88635679  0.25003893  0.24940620     0.14900
C784        C  0.90433108  0.42049182  0.07912917    -0.21100
C785        C  0.92618465  0.46764306  0.07347769    -0.09200
C786        C  0.89999573  0.48954602  0.07748411     0.29700
C787        C  0.85565575  0.46618590  0.09063327    -0.21100
C788        C  0.83586618  0.42017023  0.09911227    -0.09200
C789        C  0.85996901  0.39701213  0.09179740     0.29700
F790        F  0.84178591  0.35209166  0.09798201    -0.19700
H791        H  0.92211801  0.40162474  0.07444307     0.18100
H792        H  0.83729942  0.48461790  0.09491276     0.18100
F793        F  0.91732397  0.53370220  0.06981517    -0.19700
C794        C  0.60439196  0.15012565  0.05595300    -0.21100
C795        C  0.55897873  0.11655569  0.06377150    -0.09200
C796        C  0.53410339  0.12770880  0.08473961     0.29700
C797        C  0.55509741  0.17078296  0.09868360    -0.21100
C798        C  0.60181087  0.20289688  0.09282430    -0.09200
C799        C  0.62587115  0.19272503  0.07051722     0.29700
F800        F  0.67071672  0.22316463  0.06371237    -0.19700
H801        H  0.62447662  0.14201691  0.04018892     0.18100
H802        H  0.53595884  0.17761794  0.11599040     0.18100
F803        F  0.99118775  0.09564680  0.09443304    -0.19700
C804        C  0.57912331  0.40635473  0.08561861    -0.21100
C805        C  0.62021455  0.43067337  0.10256743    -0.09200
C806        C  0.64317532  0.47854284  0.10258643     0.29700
C807        C  0.62340530  0.50126771  0.08791614    -0.21100
C808        C  0.58019144  0.47685540  0.07292499    -0.09200
C809        C  0.55968358  0.42903622  0.07059331     0.29700
F810        F  0.51920452  0.40386466  0.05514103    -0.19700
H811        H  0.56138177  0.36950171  0.08443604     0.18100
H812        H  0.64217061  0.53790810  0.08925334     0.18100
F813        F  0.68374497  0.50360171  0.11793845    -0.19700
C814        C  0.77579330  0.24120276  0.27589325    -0.21100
C815        C  0.79484615  0.21870548  0.25913164    -0.09200
C816        C  0.79201315  0.21829873  0.22699634     0.29700
C817        C  0.77109911  0.23961218  0.21223066    -0.21100
C818        C  0.75269175  0.26257632  0.22882456    -0.09200
C819        C  0.75491911  0.26287912  0.26095686     0.29700
F820        F  0.73768328  0.28465396  0.27806807    -0.19700
H821        H  0.77760690  0.24335080  0.30044799     0.18100
H822        H  0.77003778  0.23855863  0.18752201     0.18100
F823        F  0.81038893  0.19779536  0.20961521    -0.19700
C824        C  0.80751328  0.02686102  0.22580024    -0.21100
C825        C  0.76805352  0.49094767  0.23748387    -0.09200
C826        C  0.74753074  0.49864094  0.26332258     0.29700
C827        C  0.76851910  0.04270142  0.27765949    -0.21100
C828        C  0.80914191  0.07868625  0.26508089    -0.09200
C829        C  0.82937999  0.06990324  0.23972324     0.29700
F830        F  0.86854741  0.10377380  0.22706058    -0.19700
H831        H  0.82272525  0.02171015  0.20531480     0.18100
H832        H  0.75208113  0.04905455  0.29700221     0.18100
F833        F  0.70650146  0.46504774  0.27426036    -0.19700
C834        C  0.98951454  0.23585075  0.21544622    -0.21100
C835        C  0.53102771  0.26355686  0.23269684    -0.09200
C836        C  0.52746739  0.26485159  0.26481915     0.29700
C837        C  0.98281815  0.24086386  0.27878909    -0.21100
C838        C  0.94227403  0.21582738  0.26130385    -0.09200
C839        C  0.94627726  0.21323065  0.22953844     0.29700
F840        F  0.90779142  0.19112921  0.21175589    -0.19700
H841        H  0.99070148  0.23335620  0.19083054     0.18100
H842        H  0.98029372  0.24436524  0.30321367     0.18100
F843        F  0.56577160  0.29010056  0.28223334    -0.19700
C844        C  0.68753451  0.04945589  0.45134408    -0.21100
C845        C  0.64713038  0.03944299  0.43504027    -0.09200
C846        C  0.65087136  0.04877570  0.40360051     0.29700
C847        C  0.69454904  0.07040319  0.38941418    -0.21100
C848        C  0.73551120  0.08319990  0.40627215    -0.09200
C849        C  0.73093644  0.07096690  0.43734168     0.29700
F850        F  0.76891783  0.08189561  0.45476673    -0.19700
H851        H  0.68586068  0.04193176  0.47545219     0.18100
H852        H  0.69556874  0.07855979  0.36561248     0.18100
F853        F  0.61276380  0.03938326  0.38683512    -0.19700
C854        C  0.89912264  0.27355685  0.39554788    -0.21100
C855        C  0.88001680  0.23503801  0.41437916    -0.09200
C856        C  0.88218597  0.24124994  0.44617124     0.29700
C857        C  0.90198368  0.28488451  0.45885425    -0.21100
C858        C  0.92002561  0.32378989  0.44029559    -0.09200
C859        C  0.91879594  0.31764658  0.40830031     0.29700
F860        F  0.93539917  0.35388066  0.38931958    -0.19700
H861        H  0.89714437  0.26938213  0.37095110     0.18100
H862        H  0.90276574  0.28799193  0.48349891     0.18100
F863        F  0.86473414  0.20488034  0.46510131    -0.19700
C864        C  0.89657689  0.07230101  0.38405957    -0.21100
C865        C  0.89723937  0.11019838  0.39789432    -0.09200
C866        C  0.92257247  0.12823016  0.42492921     0.29700
C867        C  0.94330403  0.10615975  0.43931363    -0.21100
C868        C  0.93956981  0.06601450  0.42683628    -0.09200
C869        C  0.91813800  0.05061562  0.39817285     0.29700
F870        F  0.89348745  0.49650736  0.39034607    -0.19700
H871        H  0.87644718  0.05755758  0.36345546     0.18100
H872        H  0.96022559  0.11915917  0.46115041     0.18100
F873        F  0.92299911  0.16421360  0.43913509    -0.19700
C874        C  0.83523315  0.39773231  0.59110264    -0.21100
C875        C  0.83937582  0.41819208  0.56260437    -0.09200
C876        C  0.80028618  0.41775851  0.54993104     0.29700
C877        C  0.75728233  0.39496683  0.56479816    -0.21100
C878        C  0.75288420  0.37312172  0.59271442    -0.09200
C879        C  0.79239376  0.37562129  0.60616877     0.29700
F880        F  0.78886306  0.35441047  0.63302024    -0.19700
H881        H  0.86496860  0.39780287  0.60128171     0.18100
H882        H  0.72680651  0.39192967  0.55360223     0.18100
F883        F  0.80278525  0.43596553  0.52201815    -0.19700
C884        C  0.59257919  0.17136455  0.54462479    -0.21100
C885        C  0.56819012  0.13190100  0.56182891    -0.09200
C886        C  0.56585166  0.13514078  0.59362714     0.29700
C887        C  0.58827615  0.17789363  0.60811710    -0.21100
C888        C  0.61295131  0.21806692  0.59090254    -0.09200
C889        C  0.61419638  0.21393511  0.55878675     0.29700
F890        F  0.63591629  0.25136881  0.54087853    -0.19700
H891        H  0.59445901  0.16919078  0.52001635     0.18100
H892        H  0.58510234  0.17883200  0.63255373     0.18100
F893        F  0.54211440  0.09700179  0.61061563    -0.19700
C894        C  0.61576739  0.43145084  0.57241218    -0.21100
C895        C  0.56707173  0.41027742  0.57001114    -0.09200
C896        C  0.53978080  0.36639072  0.58213734     0.29700
C897        C  0.56088480  0.34343150  0.59452449    -0.21100
C898        C  0.60946769  0.36330681  0.59490590    -0.09200
C899        C  0.63687432  0.40822512  0.58471254     0.29700
F900        F  0.68387387  0.42859988  0.58454443    -0.19700
H901        H  0.63773402  0.46522739  0.56334993     0.18100
H902        H  0.53901493  0.30923599  0.60298104     0.18100
F903        F  0.49268126  0.34478690  0.58110189    -0.19700
C904        C  0.91470654  0.35410499  0.88082844    -0.21100
C905        C  0.90015687  0.31401137  0.89745318    -0.09200
C906        C  0.90564208  0.31722266  0.92942253     0.29700
C907        C  0.92537004  0.35985138  0.94417135    -0.21100
C908        C  0.93983355  0.40007978  0.92733573    -0.09200
C909        C  0.93378342  0.39621047  0.89537174     0.29700
F910        F  0.44649789  0.43305751  0.87806986    -0.19700
H911        H  0.91081008  0.35308867  0.85623787     0.18100
H912        H  0.92898795  0.36064543  0.96866754     0.18100
F913        F  0.89239885  0.27941212  0.94644946    -0.19700
C914        C  0.62503590  0.08301772  0.87740846    -0.21100
C915        C  0.66533080  0.10186702  0.89566707    -0.09200
C916        C  0.66014899  0.10142191  0.92770265     0.29700
C917        C  0.61556238  0.07907882  0.94084331    -0.21100
C918        C  0.57588506  0.05707230  0.92225171    -0.09200
C919        C  0.58100834  0.06078531  0.89044429     0.29700
F920        F  0.54323418  0.04081346  0.87184873    -0.19700
H921        H  0.62734223  0.08372314  0.85273447     0.18100
H922        H  0.61213135  0.07655682  0.96545619     0.18100
F923        F  0.69784924  0.12071571  0.94632065    -0.19700
C924        C  0.89251731  0.03993765  0.94265334    -0.21100
C925        C  0.93708117  0.04872534  0.93405784    -0.09200
C926        C  0.96129216  0.08145485  0.91158944     0.29700
C927        C  0.94031088  0.10301749  0.89682011    -0.21100
C928        C  0.89523648  0.09328391  0.90461326    -0.09200
C929        C  0.87195654  0.06260719  0.92842436     0.29700
F930        F  0.82820235  0.05209270  0.93634459    -0.19700
H931        H  0.87300398  0.01423633  0.95957517     0.18100
H932        H  0.95888386  0.12654098  0.87855079     0.18100
F933        F  0.00381340  0.09005103  0.90218083    -0.19700
C934        C  0.77244670  0.28316156  0.75632278    -0.21100
C935        C  0.74547368  0.23890000  0.76773805    -0.09200
C936        C  0.69675845  0.21702337  0.76451421     0.29700
C937        C  0.67583587  0.23992429  0.75143425    -0.21100
C938        C  0.70267760  0.28494503  0.74160078    -0.09200
C939        C  0.75146069  0.30589677  0.74328894     0.29700
F940        F  0.77903838  0.34864863  0.73256200    -0.19700
H941        H  0.80996465  0.30069866  0.75797924     0.18100
H942        H  0.63860452  0.22304291  0.75038849     0.18100
F943        F  0.66899584  0.17433038  0.77525198    -0.19700
C944        C  0.49311360  0.20699338  0.75732219    -0.21100
C945        C  0.96578065  0.22752781  0.75972984    -0.09200
C946        C  0.97912691  0.26741014  0.74296072     0.29700
C947        C  0.52229725  0.29052422  0.72948281    -0.21100
C948        C  0.55316228  0.27343055  0.73097949    -0.09200
C949        C  0.53662198  0.22962026  0.74293349     0.29700
F950        F  0.56328906  0.20983452  0.74274221    -0.19700
H951        H  0.48255604  0.17470683  0.76823644     0.18100
H952        H  0.53296345  0.32310193  0.71894344     0.18100
F953        F  0.95168450  0.28655245  0.74171769    -0.19700
C954        C  0.67169323  0.44843107  0.75112134    -0.21100
C955        C  0.69721603  0.42976051  0.73764407    -0.09200
C956        C  0.74598284  0.45744891  0.73629311     0.29700
C957        C  0.77050923  0.99991491  0.75282361    -0.21100
C958        C  0.74364633  0.01665920  0.76652558    -0.09200
C959        C  0.69404082  0.49037364  0.76620068     0.29700
F960        F  0.66756597  0.50509591  0.78053581    -0.19700
H961        H  0.63437190  0.43115790  0.75077073     0.18100
H962        H  0.80805368  0.01899142  0.75430050     0.18100
F963        F  0.77219906  0.44280389  0.72154524    -0.19700
O964        O  0.74516661  0.67428926  0.79276632    -0.78300
C965        C  0.76679865  0.55768687  0.78622523     0.82700
O966        O  0.75243656  0.63533737  0.89735128    -0.79400
O967        O  0.87905387  0.60987427  0.85676283    -0.80900
O968        O  0.90936702  0.73436212  0.78956916    -0.80700
O969        O  0.81173260  0.73944441  0.79208294    -0.79300
Zn970      Zn  0.75886479  0.63333975  0.81870995     1.55700
O971        O  0.91026769  0.66926954  0.79185703    -0.80700
Cd972      Cd  0.85478439  0.72445640  0.81728306     1.59700
Cd973      Cd  0.82114993  0.66408832  0.88095002     1.59600
O974        O  0.87958124  0.77073527  0.85232020    -0.80700
O975        O  0.82157133  0.66223202  0.83458223    -1.91200
Cd976      Cd  0.85411254  0.62933193  0.81985745     1.59900
O977        O  0.85739113  0.73223442  0.89596875    -0.80700
O978        O  0.80884619  0.57262014  0.79432683    -0.79300
C979        C  0.71447396  0.61779982  0.88217367     0.83200
C980        C  0.76910943  0.71564609  0.78466771     0.82900
O981        O  0.74464028  0.57781934  0.79412385    -0.78300
C982        C  0.92690786  0.70973857  0.78199750     0.83700
O983        O  0.71447990  0.61530531  0.85318461    -0.78400
C984        C  0.87761688  0.76977816  0.88136702     0.83800
C985        C  0.87554916  0.61119567  0.88573862     0.84100
O986        O  0.85342292  0.62881478  0.89857688    -0.80800
C987        C  0.67781534  0.88068311  0.72699802     0.86700
C988        C  0.70075702  0.85565027  0.74122368    -0.53600
C989        C  0.68320887  0.81165719  0.73165944     0.09600
C990        C  0.64126288  0.79546603  0.70974532     0.20500
C991        C  0.67983080  0.87431163  0.69245080    -0.54300
C992        C  0.66068232  0.82979834  0.68288553     0.09700
C993        C  0.62659234  0.85090007  0.73543828    -0.53800
C994        C  0.60673979  0.80664597  0.72624160     0.10300
H995        H  0.72891834  0.87170677  0.75766936     0.14800
H996        H  0.62555779  0.75917287  0.70327048     0.00500
H997        H  0.69499084  0.90328764  0.67736810     0.15100
H998        H  0.60726212  0.86238893  0.74919650     0.14900
C999        C  0.96009262  0.94905667  0.94051293     0.86700
C1000       C  0.50833664  0.97956930  0.92576985    -0.53600
C1001       C  0.53298330  0.52145460  0.93667263     0.09600
C1002       C  0.50552255  0.53251918  0.96025694     0.20500
C1003       C  0.97039517  0.95501762  0.97492188    -0.54300
C1004       C  0.49526104  0.49770930  0.98591162     0.09700
C1005       C  0.93260802  0.97369033  0.93475566    -0.53800
C1006       C  0.95821706  0.51722473  0.94466771     0.10300
H1007       H  0.52371198  0.96693425  0.90919471     0.14800
H1008       H  0.52386230  0.56864387  0.96797141     0.00500
H1009       H  0.96356698  0.92762712  0.99039543     0.15100
H1010       H  0.89984259  0.95806376  0.92241106     0.14900
O1011       O  0.90091820  0.97412432  0.53390409    -0.78300
C1012       C  0.54342365  0.58807966  0.54607252     0.82700
O1013       O  0.96702061  0.51079921  0.43128969    -0.79400
O1014       O  0.60583784  0.53403644  0.48182145    -0.80900
O1015       O  0.50231683  0.90972061  0.54729431    -0.80700
O1016       O  0.90118120  0.90924104  0.54093379    -0.79300
Zn1017     Zn  0.96063845  0.51448187  0.50945525     1.55700
O1018       O  0.57010608  0.97410132  0.54548735    -0.80700
Cd1019     Cd  0.95992003  0.91960000  0.51751101     1.59700
Cd1020     Cd  0.99530180  0.97570484  0.45304094     1.59600
O1021       O  0.94119776  0.87048741  0.48383457    -0.80700
O1022       O  0.99335286  0.98109998  0.49907068    -1.91200
Cd1023     Cd  0.55757026  0.51433719  0.51613318     1.59900
O1024       O  0.96057917  0.90660213  0.43925154    -0.80700
O1025       O  0.56947884  0.57118951  0.54084080    -0.79300
C1026       C  0.95197312  0.53586714  0.44271247     0.83200
C1027       C  0.88237039  0.93384807  0.54459800     0.82900
O1028       O  0.50198791  0.56990974  0.53605809    -0.78300
C1029       C  0.54468795  0.93384248  0.55528460     0.83700
O1030       O  0.94861549  0.53960654  0.47143731    -0.78400
C1031       C  0.94322406  0.86983055  0.45475457     0.83800
C1032       C  0.60414910  0.52771934  0.45304424     0.84100
O1033       O  0.56556859  0.50612144  0.43870115    -0.80800
C1034       C  0.78550937  0.61708882  0.39358725     0.86700
C1035       C  0.81282851  0.66314504  0.41012850    -0.53600
C1036       C  0.85740837  0.68957855  0.40042823     0.09600
C1037       C  0.87158140  0.66721750  0.37491156     0.20500
C1038       C  0.79004357  0.62950170  0.35957060    -0.54300
C1039       C  0.83487319  0.65578193  0.34981698     0.09700
C1040       C  0.81508660  0.59428120  0.39698982    -0.53800
C1041       C  0.86009431  0.62024678  0.38774766     0.10300
H1042       H  0.79757558  0.67451818  0.42764429     0.14800
H1043       H  0.90799858  0.68858588  0.36708793     0.00500
H1044       H  0.76126136  0.61938907  0.34403000     0.15100
H1045       H  0.80206372  0.56102651  0.40727947     0.14900
C1046       C  0.63078796  0.76583217  0.60494946     0.86700
C1047       C  0.68050108  0.79390531  0.59308821    -0.53600
C1048       C  0.70282074  0.83828042  0.60205714     0.09600
C1049       C  0.67341260  0.85088902  0.62301172     0.20500
C1050       C  0.63566158  0.77185219  0.63995733    -0.54300
C1051       C  0.65747674  0.81645826  0.64978499     0.09700
C1052       C  0.60638574  0.79217460  0.59586081    -0.53800
C1053       C  0.62820934  0.83653466  0.60522082     0.10300
H1054       H  0.69660678  0.77990177  0.57821180     0.14800
H1055       H  0.69192556  0.88719517  0.62973744     0.00500
H1056       H  0.62175985  0.74364814  0.65547671     0.15100
H1057       H  0.57426879  0.77670111  0.58279814     0.14900
O1058       O  0.77158186  0.92340154  0.12673395    -0.78300
C1059       C  0.63369218  0.90511545  0.11983260     0.82700
O1060       O  0.71626300  0.90995592  0.23201906    -0.79400
O1061       O  0.57114064  0.79137385  0.18624765    -0.80900
O1062       O  0.66700415  0.76083488  0.11909205    -0.80700
O1063       O  0.77012546  0.85741164  0.12265608    -0.79300
Zn1064     Zn  0.71665683  0.91015003  0.15349007     1.55700
O1065       O  0.60063133  0.76176246  0.12223856    -0.80700
Cd1066     Cd  0.71184431  0.81399598  0.14772018     1.59700
Cd1067     Cd  0.68094442  0.84377680  0.21267648     1.59600
O1068       O  0.73262608  0.78715427  0.18223538    -0.80700
O1069       O  0.68206613  0.84703830  0.16638870    -1.91200
Cd1070     Cd  0.61711362  0.81727645  0.15045896     1.59900
O1071       O  0.71474658  0.80864699  0.22613570    -0.80700
O1072       O  0.60650301  0.86322221  0.12587614    -0.79300
C1073       C  0.73980093  0.94858398  0.21900133     0.83200
C1074       C  0.78887575  0.89970106  0.11667165     0.82900
O1075       O  0.67549407  0.92623769  0.12940382    -0.78300
C1076       C  0.62431242  0.74433787  0.11206849     0.83700
O1077       O  0.74223876  0.95193179  0.19000870    -0.78400
C1078       C  0.73217249  0.78802940  0.21136034     0.83800
C1079       C  0.57324502  0.78823580  0.21513414     0.84100
O1080       O  0.61221143  0.80679170  0.22921977    -0.80800
C1081       C  0.55012490  0.99967124  0.06023320     0.86700
C1082       C  0.00164364  0.97809212  0.07491589    -0.53600
C1083       C  0.97317200  0.99332475  0.06432111     0.09600
C1084       C  0.00065691  0.53166177  0.04196317     0.20500
C1085       C  0.54105717  0.99446896  0.02580473    -0.54300
C1086       C  0.51579483  0.50974974  0.01686938     0.09700
C1087       C  0.57318501  0.55038173  0.06753526    -0.53800
C1088       C  0.54592449  0.56734858  0.05768588     0.10300
H1089       H  0.99049297  0.95135157  0.09180659     0.14800
H1090       H  0.97848118  0.54505326  0.03327673     0.00500
H1091       H  0.55295134  0.97647731  0.01097820     0.15100
H1092       H  0.60523982  0.57195167  0.07965592     0.14900
C1093       C  0.81921712  0.69653255  0.27272995     0.86700
C1094       C  0.79875851  0.64632573  0.26303100    -0.53600
C1095       C  0.82285626  0.62616661  0.27335857     0.09600
C1096       C  0.86544645  0.65794316  0.29313159     0.20500
C1097       C  0.82118617  0.69516617  0.30769690    -0.54300
C1098       C  0.84461814  0.67439526  0.31851776     0.09700
C1099       C  0.86993616  0.72001324  0.26283015    -0.56800
C1100       C  0.89428520  0.70010829  0.27289252     0.10300
H1101       H  0.76802891  0.62832219  0.24876499     0.14800
H1102       H  0.88498261  0.64149670  0.30161606     0.00500
H1103       H  0.80151077  0.70452583  0.32292453     0.15100
H1104       H  0.88499082  0.74910806  0.24763188     0.14900
C1105       C  0.90029018  0.92170337  0.07787236    -0.21100
C1106       C  0.92271862  0.96894186  0.07257698    -0.09200
C1107       C  0.89727245  0.99148985  0.07727907     0.29700
C1108       C  0.85303091  0.96846304  0.09066407    -0.21100
C1109       C  0.83268511  0.92221238  0.09869767    -0.09200
C1110       C  0.85612651  0.89861053  0.09079506     0.29700
F1111       F  0.83748785  0.85353624  0.09663703    -0.19700
H1112       H  0.91753109  0.90244562  0.07273595     0.18100
H1113       H  0.83521626  0.98727786  0.09546634     0.18100
F1114       F  0.91527558  0.03590721  0.07006415    -0.19700
C1115       C  0.60585477  0.64961894  0.05714564    -0.21100
C1116       C  0.56039140  0.61568697  0.06452185    -0.09200
C1117       C  0.53441697  0.62671098  0.08463710     0.29700
C1118       C  0.55437897  0.67001185  0.09823733    -0.21100
C1119       C  0.60111649  0.70255124  0.09286087    -0.09200
C1120       C  0.62625470  0.69247030  0.07133046     0.29700
F1121       F  0.67115359  0.72329341  0.06495667    -0.19700
H1122       H  0.62676291  0.64172046  0.04199077     0.18100
H1123       H  0.53439145  0.67674722  0.11493815     0.18100
F1124       F  0.99242613  0.59489686  0.09383630    -0.19700
C1125       C  0.57527427  0.90589144  0.08431670    -0.21100
C1126       C  0.61614108  0.92997891  0.10155356    -0.09200
C1127       C  0.63928169  0.97786416  0.10160291     0.29700
C1128       C  0.61994130  0.00081038  0.08675690    -0.21100
C1129       C  0.57687717  0.97670431  0.07158482    -0.09200
C1130       C  0.55621348  0.92886603  0.06911393     0.29700
F1131       F  0.51600257  0.90400163  0.05332269    -0.19700
H1132       H  0.55744854  0.86903987  0.08304183     0.18100
H1133       H  0.63898011  0.03745034  0.08813008     0.18100
F1134       F  0.67967369  0.00280126  0.11715769    -0.19700
C1135       C  0.77715400  0.74344407  0.27484702    -0.21100
C1136       C  0.79398501  0.71896771  0.25804317    -0.09200
C1137       C  0.78979350  0.71766880  0.22595186     0.29700
C1138       C  0.76927395  0.73959476  0.21133798    -0.21100
C1139       C  0.75269677  0.76414888  0.22802180    -0.09200
C1140       C  0.75679539  0.76577727  0.26007755     0.29700
F1141       F  0.74208151  0.78966564  0.27726517    -0.19700
H1142       H  0.78055227  0.74683162  0.29932286     0.18100
H1143       H  0.76691041  0.73761710  0.18666734     0.18100
F1144       F  0.80647795  0.69573461  0.20845028    -0.19700
C1145       C  0.81073885  0.52664372  0.22698995    -0.21100
C1146       C  0.76548167  0.99131942  0.23723261    -0.09200
C1147       C  0.74713345  0.99908128  0.26416473     0.29700
C1148       C  0.76733950  0.54236570  0.27647617    -0.21100
C1149       C  0.80858294  0.57852487  0.26473194    -0.09200
C1150       C  0.83112919  0.56984816  0.24069446     0.29700
F1151       F  0.87110979  0.60395885  0.22898824    -0.19700
H1152       H  0.82753166  0.52149119  0.20734884     0.18100
H1153       H  0.74933333  0.54859370  0.29490156     0.18100
F1154       F  0.70673339  0.96572967  0.27600562    -0.19700
C1155       C  0.98848277  0.73720171  0.21423613    -0.21100
C1156       C  0.52840941  0.76131800  0.23178616    -0.09200
C1157       C  0.52470145  0.76032618  0.26396777     0.29700
C1158       C  0.98138612  0.73740439  0.27778088    -0.21100
C1159       C  0.94091700  0.71487666  0.25991396    -0.09200
C1160       C  0.94512403  0.71413284  0.22806136     0.29700
F1161       F  0.90675331  0.69317990  0.21004808    -0.19700
H1162       H  0.98976004  0.73645903  0.18954298     0.18100
H1163       H  0.97872385  0.73889499  0.30236519     0.18100
F1164       F  0.56304006  0.78340754  0.28173651    -0.19700
C1165       C  0.68911542  0.55539607  0.45236415    -0.21100
C1166       C  0.64878439  0.54634616  0.43635981    -0.09200
C1167       C  0.65244382  0.55729413  0.40522645     0.29700
C1168       C  0.69587509  0.57843768  0.39080796    -0.21100
C1169       C  0.73677312  0.58914816  0.40713028    -0.09200
C1170       C  0.73236999  0.57639582  0.43809307     0.29700
F1171       F  0.77034769  0.58569997  0.45503165    -0.19700
H1172       H  0.68737182  0.54689226  0.47627467     0.18100
H1173       H  0.69668046  0.58751413  0.36729498     0.18100
F1174       F  0.61446725  0.54978692  0.38899988    -0.19700
C1175       C  0.89782765  0.77441850  0.39449700    -0.21100
C1176       C  0.88653155  0.73639024  0.41276099    -0.09200
C1177       C  0.89628565  0.74289347  0.44411594     0.29700
C1178       C  0.91563469  0.78636748  0.45713400    -0.21100
C1179       C  0.92529665  0.82458175  0.43933744    -0.09200
C1180       C  0.91695352  0.81822127  0.40759567     0.29700
F1181       F  0.92519285  0.85373798  0.38943489    -0.19700
H1182       H  0.88958911  0.76983146  0.37035189     0.18100
H1183       H  0.92218084  0.78984549  0.48148941     0.18100
F1184       F  0.88569608  0.70680221  0.46237302    -0.19700
C1185       C  0.88435204  0.56145973  0.38465133    -0.21100
C1186       C  0.89394853  0.60502291  0.39435089    -0.09200
C1187       C  0.92856568  0.62830803  0.41642561     0.29700
C1188       C  0.94961001  0.60641040  0.43076425    -0.21100
C1189       C  0.93734640  0.56147947  0.42276914    -0.09200
C1190       C  0.90626601  0.53995045  0.39848994     0.29700
F1191       F  0.91417359  0.01229551  0.38522617    -0.19700
H1192       H  0.85734271  0.54280587  0.36788756     0.18100
H1193       H  0.97374688  0.62368394  0.44932668     0.18100
F1194       F  0.93836748  0.67017620  0.42648995    -0.19700
C1195       C  0.82992658  0.88421685  0.58580018    -0.21100
C1196       C  0.83801066  0.91457727  0.56179572    -0.09200
C1197       C  0.80242915  0.92361866  0.55351141     0.29700
C1198       C  0.75903310  0.90092135  0.56810606    -0.21100
C1199       C  0.75079676  0.86962887  0.59147331    -0.09200
C1200       C  0.78691215  0.86210887  0.60055331     0.29700
F1201       F  0.77974492  0.83164677  0.62281858    -0.19700
H1202       H  0.85674582  0.87680623  0.59273433     0.18100
H1203       H  0.73108512  0.90570811  0.55987960     0.18100
F1204       F  0.80839556  0.95170349  0.52988122    -0.19700
C1205       C  0.58047092  0.67130611  0.54470075    -0.21100
C1206       C  0.56307965  0.63184245  0.56207323    -0.09200
C1207       C  0.56637112  0.63504805  0.59397280     0.29700
C1208       C  0.58774947  0.67785603  0.60836836    -0.21100
C1209       C  0.60628539  0.71806479  0.59096376    -0.09200
C1210       C  0.60187482  0.71389426  0.55881310     0.29700
F1211       F  0.61870608  0.75131984  0.54086261    -0.19700
H1212       H  0.57807091  0.66912142  0.52001644     0.18100
H1213       H  0.58966717  0.67871193  0.63291396     0.18100
F1214       F  0.54893974  0.59683974  0.61113281    -0.19700
C1215       C  0.61450773  0.93456871  0.57709067    -0.21100
C1216       C  0.56585562  0.91337851  0.57458136    -0.09200
C1217       C  0.53844082  0.87004865  0.58740377     0.29700
C1218       C  0.55941486  0.84685795  0.59955983    -0.21100
C1219       C  0.60793835  0.86601437  0.59896262    -0.09200
C1220       C  0.63548714  0.91114982  0.58918622     0.29700
F1221       F  0.68244233  0.93148450  0.58889928    -0.19700
H1222       H  0.63655076  0.96820477  0.56784048     0.18100
H1223       H  0.53741687  0.81278040  0.60816171     0.18100
F1224       F  0.49134197  0.84889753  0.58677161    -0.19700
C1225       C  0.91227087  0.85392444  0.88066579    -0.21100
C1226       C  0.89841554  0.81427102  0.89774543    -0.09200
C1227       C  0.90356059  0.81829598  0.92969769     0.29700
C1228       C  0.92259400  0.86120631  0.94396417    -0.21100
C1229       C  0.93681018  0.90105033  0.92667940    -0.09200
C1230       C  0.93069034  0.89636644  0.89475399     0.29700
F1231       F  0.44415886  0.93346875  0.87669601    -0.19700
H1232       H  0.90854085  0.85231956  0.85606483     0.18100
H1233       H  0.92582843  0.86239962  0.96845793     0.18100
F1234       F  0.89064426  0.78101076  0.94721731    -0.19700
C1235       C  0.62828328  0.57871433  0.87911684    -0.21100
C1236       C  0.66846602  0.59900552  0.89748719    -0.09200
C1237       C  0.66307155  0.59941435  0.92946232     0.29700
C1238       C  0.61837730  0.57700212  0.94247879    -0.21100
C1239       C  0.57887559  0.55406549  0.92379580    -0.09200
C1240       C  0.58424515  0.55648969  0.89199976     0.29700
F1241       F  0.54669201  0.53543429  0.87328099    -0.19700
H1242       H  0.63066463  0.57845151  0.85446273     0.18100
H1243       H  0.61474103  0.57536871  0.96709273     0.18100
F1244       F  0.70065288  0.61995995  0.94813066    -0.19700
C1245       C  0.89587233  0.53851328  0.94260837    -0.21100
C1246       C  0.94072966  0.54772032  0.93443846    -0.09200
C1247       C  0.96502151  0.58048680  0.91198344     0.29700
C1248       C  0.94392653  0.60183738  0.89694874    -0.21100
C1249       C  0.89868525  0.59191470  0.90451326    -0.09200
C1250       C  0.87522235  0.56093536  0.92814942     0.29700
F1251       F  0.83120480  0.54992593  0.93571252    -0.19700
H1252       H  0.87619380  0.51265122  0.95940265     0.18100
H1253       H  0.96260909  0.62547843  0.87876192     0.18100
F1254       F  0.00779607  0.58937397  0.90291376    -0.19700
C1255       C  0.77430585  0.78242117  0.75730451    -0.21100
C1256       C  0.74699202  0.73737591  0.76729166    -0.09200
C1257       C  0.69868803  0.71501871  0.76190225     0.29700
C1258       C  0.67844467  0.73842607  0.74856869    -0.21100
C1259       C  0.70531389  0.78452134  0.74096020    -0.09200
C1260       C  0.75396296  0.80566718  0.74417521     0.29700
F1261       F  0.78212508  0.84901166  0.73467200    -0.19700
H1262       H  0.81170490  0.80032397  0.76026622     0.18100
H1263       H  0.64120692  0.72057101  0.74531719     0.18100
F1264       F  0.67067230  0.67119734  0.77052365    -0.19700
C1265       C  0.49752110  0.70978366  0.76087602    -0.21100
C1266       C  0.96863824  0.72942609  0.76212130    -0.09200
C1267       C  0.98250222  0.77011314  0.74619129     0.29700
C1268       C  0.52557364  0.79185501  0.73122379    -0.21100
C1269       C  0.55664980  0.77503459  0.73310542    -0.09200
C1270       C  0.54103434  0.73236094  0.74660251     0.29700
F1271       F  0.56883997  0.71396773  0.74829885    -0.19700
H1272       H  0.48757051  0.67825173  0.77266900     0.18100
H1273       H  0.53596923  0.82398880  0.72010700     0.18100
F1274       F  0.95557311  0.78986457  0.74573639    -0.19700
C1275       C  0.67411271  0.95010905  0.74770448    -0.21100
C1276       C  0.70051045  0.93054790  0.73717037    -0.09200
C1277       C  0.74932349  0.95781742  0.73775080     0.29700
C1278       C  0.76842572  0.49940567  0.75158205    -0.21100
C1279       C  0.74278792  0.51551959  0.76763291    -0.09200
C1280       C  0.69521835  0.99225793  0.76254153     0.29700
F1281       F  0.66777712  0.00799054  0.77401839    -0.19700
H1282       H  0.63694073  0.93326037  0.74495873     0.18100
H1283       H  0.80600987  0.51889082  0.75134178     0.18100
F1284       F  0.77665812  0.94285096  0.72501809    -0.19700
loop_ 
_geom_bond_atom_site_label_1 
_geom_bond_atom_site_label_2 
_geom_bond_distance 
_geom_bond_site_symmetry_2 
_ccdc_geom_bond_type 
O1           C17   1.271       .  A
O1           Zn7   2.011       .  S
C2           O18   1.274       .  A
C2           O15   1.274       .  A
C2          C316   1.478       .  S
O3           C16   1.279       .  A
O3          Cd10   2.110       .  S
O4           C22   1.276       .  A
O4          Cd13   2.065       .  S
O5           C19   1.274       .  A
O5           Cd9   2.069       .  S
O6           C17   1.273       .  A
O6           Cd9   2.064       .  S
Zn7          O18   2.008       .  S
Zn7          O20   1.996       .  S
Zn7          O12   1.934       .  S
O8           C19   1.274       .  A
O8          Cd13   2.077       .  S
Cd9          O11   2.045       .  S
Cd9          O12   1.984       .  S
Cd10         O14   2.094       .  S
Cd10         O23   2.107       .  S
Cd10         O12   2.028       .  S
O11          C21   1.275       .  A
O12         Cd13   1.997       .  S
Cd13         O15   2.061       .  S
O14          C21   1.278       .  A
C16          O20   1.273       .  A
C16         C273   1.493       .  S
C17         C293   1.484       .  S
C19         C303   1.487       .  S
C21         C263   1.484       .  S
C22          O23   1.280       .  A
C22         C286   1.481       .  S
C24          C25   1.528       .  S
C24          C30   1.532       .  S
C24          C28   1.536       .  S
C24         C313   1.531       .  S
C25          H32   1.086       .  S
C25          C26   1.362       .  D
C26          C27   1.548       .  S
C26         C296   1.490       .  S
C27          C31   1.549       .  S
C27          C29   1.556       .  S
C27          H33   1.104       .  S
C28          H34   1.082       .  S
C28          C29   1.375       .  D
C29          C88   1.504       .  S
C30          H35   1.079       .  S
C30          C31   1.362       .  D
C31         C306   1.496       .  S
C36          C42   1.535       .  S
C36          C40   1.536       .  S
C36         C679   1.532       .  S
C36         C266   1.528       .  S
C37         C678   1.532   1_455  S
C37          H44   1.087       .  S
C37         C359   1.361       .  D
C38          C39   1.540       .  S
C38         C358   1.361   1_545  D
C38         C276   1.481       .  S
C39          C41   1.545   1_445  S
C39         C685   1.549   1_455  S
C39          H45   1.111       .  S
C40          H46   1.083       .  S
C40        C1004   1.371       .  D
C41        C1003   1.369       .  D
C41         C123   1.479   1_666  S
C42          H47   1.087       .  S
C42         C364   1.365       .  D
C43         C681   1.549       .  S
C43         C363   1.366   1_545  D
C43         C283   1.485       .  S
O48          C64   1.277       .  A
O48        Zn375   2.044       .  S
C49          O65   1.274       .  A
C49          O62   1.270       .  A
C49         C243   1.463       .  S
O50          C63   1.280       .  A
O50        Cd378   2.102   1_545  S
O51          C69   1.273       .  A
O51         Cd60   2.047       .  S
O52          C66   1.274       .  A
O52        Cd698   2.065   1_455  S
O53          C64   1.275       .  A
O53         Cd56   2.073       .  S
Zn54         O67   2.005       .  S
Zn54        O369   2.051   1_545  S
Zn54        O707   2.031       .  S
Zn54        O380   1.946   1_545  S
O55          C66   1.272       .  A
O55        Cd381   2.059       .  S
Cd56         O58   2.060       .  S
Cd56        O694   2.064       .  S
Cd56         O59   1.986       .  S
Cd57         O61   2.110       .  S
Cd57        O371   2.100       .  S
Cd57       O1033   2.096       .  S
Cd57         O59   2.025       .  S
O58          C68   1.276       .  A
O59        Zn375   1.943       .  S
O59       Cd1023   1.998       .  S
Cd60         O62   2.051       .  S
Cd60        O376   2.050   1_545  S
Cd60       O1022   1.993   1_445  S
O61          C68   1.280       .  A
C63          O67   1.275       .  A
C63         C226   1.483       .  S
C64         C233   1.480       .  S
O65        Zn696   2.031   1_455  S
C66         C253   1.482       .  S
C68         C216   1.495       .  S
C69          O70   1.278       .  A
C69         C203   1.486       .  S
O70       Cd1020   2.101   1_445  S
C71          C72   1.535       .  S
C71          C77   1.530       .  S
C71          C75   1.538       .  S
C71         C206   1.531       .  S
C72          H79   1.087       .  S
C72          C73   1.364       .  D
C73          C74   1.543       .  S
C73         C213   1.486       .  S
C74          C78   1.547       .  S
C74          C76   1.540       .  S
C74          H80   1.111       .  S
C75          H81   1.082       .  S
C75          C76   1.370       .  D
C76         C135   1.478       .  S
C77          H82   1.087       .  S
C77          C78   1.364       .  D
C78         C223   1.476       .  S
C83          C84   1.531       .  S
C83          C89   1.530       .  S
C83          C87   1.544       .  S
C83         C246   1.527       .  S
C84          H91   1.087       .  S
C84          C85   1.359       .  D
C85          C86   1.542       .  S
C85         C236   1.479       .  S
C86          C90   1.539       .  S
C86          C88   1.555       .  S
C86          H92   1.105       .  S
C87          H93   1.076       .  S
C87          C88   1.377       .  D
C89          H94   1.087       .  S
C89          C90   1.361       .  D
C90         C256   1.483       .  S
O95         C111   1.273       .  A
O95        Zn101   2.017       .  S
C96         O112   1.274       .  A
C96         O109   1.275       .  A
C96         C163   1.478       .  S
O97         C110   1.279       .  A
O97        Cd104   2.108       .  S
O98         C116   1.276       .  A
O98        Cd107   2.061       .  S
O99         C113   1.276       .  A
O99        Cd103   2.084       .  S
O100        C111   1.275       .  A
O100       Cd103   2.077       .  S
Zn101       O112   2.009       .  S
Zn101       O114   2.015       .  S
Zn101       O106   1.943       .  S
O102        C113   1.273       .  A
O102       Cd107   2.069       .  S
Cd103       O105   2.058       .  S
Cd103       O106   1.997       .  S
Cd104       O108   2.081       .  S
Cd104       O117   2.108       .  S
Cd104       O106   2.027       .  S
O105        C115   1.277       .  A
O106       Cd107   1.992       .  S
Cd107       O109   2.061       .  S
O108        C115   1.277       .  A
C110        O114   1.274       .  A
C110        C183   1.486       .  S
C111        C146   1.488       .  S
C113        C156   1.482       .  S
C115        C176   1.484       .  S
C116        O117   1.279       .  A
C116        C193   1.494       .  S
C118        C122   1.531       .  S
C118        C761   1.531       .  S
C118        C445   1.531       .  S
C118        C166   1.528       .  S
C119        C760   1.531       .  S
C119        H126   1.086       .  S
C119        C120   1.366       .  D
C120        C442   1.549       .  S
C120        C143   1.497       .  S
C121        C441   1.549   1_545  S
C121        C767   1.554       .  S
C121        C765   1.543       .  S
C121        H127   1.109       .  S
C122        H128   1.087       .  S
C122        C444   1.367       .  D
C123        C763   1.543   1_455  S
C123        C443   1.368   1_545  D
C124        C439   1.531   1_545  S
C124        H129   1.082       .  S
C124        C125   1.363       .  D
C125        C763   1.554   1_455  S
C125        C153   1.485       .  S
C130        C131   1.538       .  S
C130        C136   1.526       .  S
C130        C134   1.534       .  S
C130        C173   1.525       .  S
C131        H138   1.087       .  S
C131        C132   1.362       .  D
C132        C133   1.545       .  S
C132        C186   1.484       .  S
C133        C137   1.551       .  S
C133        C135   1.549       .  S
C133        H139   1.111       .  S
C134        H140   1.083       .  S
C134        C135   1.370       .  D
C136        H141   1.087       .  S
C136        C137   1.360       .  D
C137        C196   1.485       .  S
C142        C143   1.410       .  A
C142        C147   1.395       .  A
C142        H149   1.083       .  S
C143        C144   1.406       .  A
C144        C145   1.403       .  A
C144        F151   1.353       .  S
C145        C146   1.409       .  A
C145        H150   1.083       .  S
C146        C147   1.406       .  A
C147        F148   1.358       .  S
C152        C153   1.407       .  A
C152        C157   1.400       .  A
C152        H159   1.084       .  S
C153        C154   1.404       .  A
C154        C155   1.400       .  A
C154        F803   1.353   1_455  S
C155        C156   1.406       .  A
C155        H160   1.083       .  S
C156        C157   1.406       .  A
C157        F158   1.357       .  S
F161        C796   1.353       .  S
C162        C163   1.402       .  A
C162        C167   1.394       .  A
C162        H169   1.084       .  S
C163        C164   1.406       .  A
C164        C165   1.396       .  A
C164        F171   1.358       .  S
C165        C166   1.410       .  A
C165        H170   1.077       .  S
C166        C167   1.413       .  A
C167        F168   1.358       .  S
C172        C173   1.410       .  A
C172        C177   1.402       .  A
C172        H179   1.077       .  S
C173        C174   1.411       .  A
C174        C175   1.390       .  A
C174        F181   1.358       .  S
C175        C176   1.403       .  A
C175        H180   1.083       .  S
C176        C177   1.410       .  A
C177        F178   1.357       .  S
C182        C187   1.398       .  A
C182        C504   1.407   1_545  A
C182        H189   1.083       .  S
C183        C184   1.407       .  A
C183        C503   1.407       .  A
C184        C506   1.405       .  A
C184        F191   1.357       .  S
C185        C186   1.406       .  A
C185        C505   1.408   1_545  A
C185        H190   1.083       .  S
C186        C187   1.401       .  A
C187        F188   1.354       .  S
C192        C197   1.391       .  A
C192        C835   1.406       .  A
C192        H199   1.083       .  S
C193        C194   1.414       .  A
C193        C834   1.406   1_455  A
C194        C837   1.411   1_455  A
C194        F201   1.357       .  S
C195        C196   1.406       .  A
C195        C836   1.412       .  A
C195        H200   1.083       .  S
C196        C197   1.404       .  A
C197        F198   1.357       .  S
C202        C203   1.404       .  A
C202        C207   1.393       .  A
C202        H209   1.083       .  S
C203        C204   1.407       .  A
C204        C205   1.404       .  A
C204        F211   1.357       .  S
C205        C206   1.413       .  A
C205        H210   1.077       .  S
C206        C207   1.411       .  A
C207        F208   1.358       .  S
C212        C213   1.405       .  A
C212        C217   1.409       .  A
C212        H219   1.083       .  S
C213        C214   1.403       .  A
C214        C215   1.394       .  A
C214        F221   1.358       .  S
C215        C216   1.409       .  A
C215        H220   1.083       .  S
C216        C217   1.413       .  A
C217        F218   1.357       .  S
C222        C223   1.405       .  A
C222        C227   1.403       .  A
C222        H229   1.083       .  S
C223        C224   1.402       .  A
C224        C225   1.397       .  A
C224        F231   1.358       .  S
C225        C226   1.408       .  A
C225        H230   1.083       .  S
C226        C227   1.407       .  A
C227        F549   1.357       .  S
F228        C548   1.357       .  S
C232        C233   1.406       .  A
C232        C237   1.401       .  A
C232        H239   1.083       .  S
C233        C234   1.407       .  A
C234        C235   1.402       .  A
C234        F241   1.357       .  S
C235        C236   1.404       .  A
C235        H240   1.083       .  S
C236        C237   1.403       .  A
C237        F238   1.357       .  S
C242        C243   1.395       .  A
C242        C247   1.391       .  A
C242        H249   1.084       .  S
C243        C244   1.401       .  A
C244        C245   1.402       .  A
C244        F251   1.357       .  S
C245        C246   1.412       .  A
C245        H250   1.077       .  S
C246        C247   1.415       .  A
C247        F248   1.358       .  S
C252        C253   1.409       .  A
C252        C257   1.399       .  A
C252        H259   1.083       .  S
C253        C254   1.407       .  A
C254        C255   1.393       .  A
C254        F261   1.358   1_455  S
C255        C256   1.405       .  A
C255        H260   1.083       .  S
C256        C257   1.404       .  A
C257        F258   1.356       .  S
C262        C263   1.403       .  A
C262        C267   1.388       .  A
C262        H269   1.083       .  S
C263        C264   1.409       .  A
C264        C265   1.405       .  A
C264        F271   1.357       .  S
C265        C266   1.412       .  A
C265        H270   1.079       .  S
C266        C267   1.410       .  A
C267        F910   1.359       .  S
F268        C909   1.359       .  S
C272        C273   1.408       .  A
C272        C277   1.392       .  A
C272        H279   1.083       .  S
C273        C274   1.413       .  A
C274        C275   1.408       .  A
C274        F281   1.357       .  S
C275        C276   1.404       .  A
C275        H280   1.083       .  S
C276        C277   1.402       .  A
C277        F278   1.358       .  S
C282        C283   1.407       .  A
C282        C287   1.406       .  A
C282        H289   1.083       .  S
C283        C284   1.403       .  A
C284        C285   1.398       .  A
C284        F291   1.356       .  S
C285        C286   1.405       .  A
C285        H290   1.084       .  S
C286        C287   1.407       .  A
C287        F288   1.357       .  S
C292        C293   1.404       .  A
C292        C297   1.395       .  A
C292        H299   1.083       .  S
C293        C294   1.411       .  A
C294        C295   1.400       .  A
C294        F301   1.357       .  S
C295        C296   1.401       .  A
C295        H300   1.073       .  S
C296        C297   1.411       .  A
C297        F298   1.358       .  S
C302        C307   1.404   1_655  A
C302        C945   1.408       .  A
C302        H309   1.083       .  S
C303        C304   1.407       .  A
C303        C944   1.409       .  A
C304        C947   1.394       .  A
C304        F311   1.358       .  S
C305        C306   1.408       .  A
C305        C946   1.395   1_455  A
C305        H310   1.084       .  S
C306        C307   1.405       .  A
C307        F308   1.350       .  S
C312        C313   1.411       .  A
C312        C317   1.394       .  A
C312        H319   1.075       .  S
C313        C314   1.412       .  A
C314        C636   1.398       .  A
C314        F321   1.358       .  S
C315        C316   1.405   1_565  A
C315        C635   1.397       .  A
C315        H320   1.083   1_565  S
C316        C638   1.405   1_545  A
C317        C637   1.406       .  A
C317        F318   1.358       .  S
O322        C338   1.272       .  A
O322       Zn328   2.019       .  S
C323        O339   1.273       .  A
C323        O336   1.276       .  A
C323        C637   1.479       .  S
O324        C337   1.279       .  A
O324       Cd331   2.113       .  S
O325        C343   1.277       .  A
O325       Cd334   2.074       .  S
O326        C340   1.274       .  A
O326       Cd330   2.065       .  S
O327        C338   1.273       .  A
O327       Cd330   2.066       .  S
Zn328       O339   2.001       .  S
Zn328       O341   1.982       .  S
Zn328       O333   1.934       .  S
O329        C340   1.275       .  A
O329       Cd334   2.077       .  S
Cd330       O332   2.042       .  S
Cd330       O333   1.986       .  S
Cd331       O335   2.102       .  S
Cd331       O344   2.114       .  S
Cd331       O333   2.032       .  S
O332        C342   1.274       .  A
O333       Cd334   2.002       .  S
Cd334       O336   2.073       .  S
O335        C342   1.280       .  A
C337        O341   1.272       .  A
C337        C594   1.491       .  S
C338        C614   1.487       .  S
C340        C624   1.485       .  S
C342        C584   1.486       .  S
C343        O344   1.281       .  A
C343        C607   1.486       .  S
C345        C346   1.530       .  S
C345        C351   1.530       .  S
C345        C349   1.533       .  S
C345        C634   1.530       .  S
C346        H353   1.086       .  S
C346        C347   1.364       .  D
C347        C348   1.549       .  S
C347        C617   1.492       .  S
C348        C352   1.550       .  S
C348        C350   1.557       .  S
C348        H354   1.104       .  S
C349        H355   1.081       .  S
C349        C350   1.374       .  D
C350        C409   1.504       .  S
C351        H356   1.081       .  S
C351        C352   1.360       .  D
C352        C627   1.495       .  S
C357       C1000   1.534       .  S
C357        C363   1.535       .  S
C357        C361   1.536       .  S
C357        C587   1.530       .  S
C358        C999   1.534   1_455  S
C358        H365   1.087       .  S
C359        C360   1.539       .  S
C359        C597   1.479       .  S
C360       C1006   1.550   1_455  S
C360        C362   1.545   1_455  S
C360        H366   1.111       .  S
C361        H367   1.082       .  S
C361        C683   1.369       .  D
C362        C682   1.371       .  D
C362        C444   1.480   1_656  S
C363        H368   1.087       .  S
C364       C1002   1.550       .  S
C364        C604   1.487       .  S
O369        C385   1.277       .  A
C370        O386   1.272       .  A
C370        O383   1.272       .  A
C370        C564   1.462       .  S
O371        C384   1.279       .  A
O372        C390   1.274       .  A
O372       Cd381   2.054       .  S
O373        C387   1.274       .  A
O373      Cd1019   2.061   1_455  S
O374        C385   1.275       .  A
O374       Cd377   2.073       .  S
Zn375      O1028   2.015       .  S
Zn375       O388   2.006       .  S
O376        C387   1.271       .  A
Cd377      O1015   2.060       .  S
Cd377       O379   2.063       .  S
Cd377       O380   1.985       .  S
Cd378       O382   2.112       .  S
Cd378       O712   2.102   1_565  S
Cd378       O380   2.027       .  S
O379        C389   1.276       .  A
O380       Cd702   1.993   1_565  S
Cd381       O383   2.062       .  S
Cd381       O701   1.999   1_455  S
O382        C389   1.281       .  A
C384        O388   1.274       .  A
C384        C547   1.478       .  S
C385        C554   1.487       .  S
O386      Zn1017   2.015   1_455  S
C387        C574   1.478       .  S
C389        C537   1.495       .  S
C390        O391   1.278       .  A
C390        C524   1.484       .  S
O391       Cd699   2.095   1_455  S
C392        C393   1.535       .  S
C392        C398   1.530       .  S
C392        C396   1.539       .  S
C392        C527   1.532       .  S
C393        H400   1.087       .  S
C393        C394   1.363       .  D
C394        C395   1.543       .  S
C394        C534   1.483       .  S
C395        C399   1.549       .  S
C395        C397   1.540       .  S
C395        H401   1.111       .  S
C396        H402   1.080       .  S
C396        C397   1.369       .  D
C397        C456   1.480       .  S
C398        H403   1.087       .  S
C398        C399   1.366       .  D
C399        C544   1.481       .  S
C404        C405   1.529       .  S
C404        C410   1.529       .  S
C404        C408   1.544       .  S
C404        C567   1.527       .  S
C405        H412   1.087       .  S
C405        C406   1.358       .  D
C406        C407   1.544       .  S
C406        C557   1.484       .  S
C407        C411   1.540       .  S
C407        C409   1.555       .  S
C407        H413   1.104       .  S
C408        H414   1.076       .  S
C408        C409   1.376       .  D
C410        H415   1.087       .  S
C410        C411   1.363       .  D
C411        C577   1.484       .  S
O416        C432   1.273       .  A
O416       Zn422   2.021       .  S
C417        O433   1.274       .  A
C417        O430   1.275       .  A
C417        C484   1.481       .  S
O418        C431   1.280       .  A
O418       Cd425   2.116       .  S
O419        C437   1.275       .  A
O419       Cd428   2.055       .  S
O420        C434   1.276       .  A
O420       Cd424   2.083       .  S
O421        C432   1.275       .  A
O421       Cd424   2.071       .  S
Zn422       O433   2.011       .  S
Zn422       O435   2.014       .  S
Zn422       O427   1.944       .  S
O423        C434   1.273       .  A
O423       Cd428   2.075       .  S
Cd424       O426   2.060       .  S
Cd424       O427   1.995       .  S
Cd425       O429   2.090       .  S
Cd425       O438   2.112       .  S
Cd425       O427   2.032       .  S
O426        C436   1.276       .  A
O427       Cd428   1.996       .  S
Cd428       O430   2.069       .  S
O429        C436   1.278       .  A
C431        O435   1.275       .  A
C431        C504   1.490       .  S
C432        C467   1.488       .  S
C434        C477   1.484       .  S
C436        C497   1.488       .  S
C437        O438   1.280       .  A
C437        C514   1.494       .  S
C439       C1082   1.531       .  S
C439        C443   1.530       .  S
C439        C487   1.530       .  S
C440       C1081   1.531       .  S
C440        H447   1.086       .  S
C440        C441   1.366       .  D
C441        C464   1.497       .  S
C442       C1088   1.555       .  S
C442       C1086   1.543       .  S
C442        H448   1.109       .  S
C443        H449   1.087       .  S
C444       C1084   1.543       .  S
C445        H450   1.082       .  S
C445        C446   1.364       .  D
C446       C1084   1.556       .  S
C446        C474   1.487       .  S
C451        C452   1.540       .  S
C451        C457   1.525       .  S
C451        C455   1.535       .  S
C451        C494   1.529       .  S
C452        H459   1.087       .  S
C452        C453   1.365       .  D
C453        C454   1.544       .  S
C453        C507   1.483       .  S
C454        C458   1.548       .  S
C454        C456   1.548       .  S
C454        H460   1.111       .  S
C455        H461   1.083       .  S
C455        C456   1.370       .  D
C457        H462   1.087       .  S
C457        C458   1.361       .  D
C458        C517   1.484       .  S
C463        C464   1.409       .  A
C463        C468   1.394       .  A
C463        H470   1.083       .  S
C464        C465   1.407       .  A
C465        C466   1.404       .  A
C465        F472   1.353   1_565  S
C466        C467   1.410       .  A
C466        H471   1.083       .  S
C467        C468   1.407       .  A
C468        F469   1.358       .  S
C473        C474   1.407       .  A
C473        C478   1.400       .  A
C473        H480   1.084       .  S
C474        C475   1.404       .  A
C475        C476   1.402       .  A
C475       F1124   1.352   1_455  S
C476        C477   1.406       .  A
C476        H481   1.083       .  S
C477        C478   1.406       .  A
C478        F479   1.357       .  S
F482       C1117   1.352       .  S
C483        C484   1.403       .  A
C483        C488   1.397       .  A
C483        H490   1.084       .  S
C484        C485   1.407       .  A
C485        C486   1.396   1_565  A
C485        F492   1.358   1_565  S
C486        C487   1.409   1_545  A
C486        H491   1.077       .  S
C487        C488   1.413       .  A
C488        F489   1.358       .  S
C493        C494   1.411       .  A
C493        C498   1.403       .  A
C493        H500   1.077       .  S
C494        C495   1.411       .  A
C495        C496   1.393       .  A
C495        F502   1.358       .  S
C496        C497   1.404       .  A
C496        H501   1.083       .  S
C497        C498   1.409       .  A
C498        F499   1.357       .  S
C503        C508   1.401       .  A
C503        H510   1.083       .  S
C504        C505   1.409       .  A
C505        F512   1.357       .  S
C506        C507   1.406       .  A
C506        H511   1.083       .  S
C507        C508   1.402       .  A
C508        F509   1.356       .  S
C513       C1156   1.407       .  A
C513        C518   1.391       .  A
C513        H520   1.083       .  S
C514       C1155   1.407   1_455  A
C514        C515   1.414       .  A
C515       C1158   1.411   1_455  A
C515        F522   1.357       .  S
C516       C1157   1.411       .  A
C516        C517   1.405       .  A
C516        H521   1.083       .  S
C517        C518   1.403       .  A
C518        F519   1.358       .  S
C523        C524   1.404       .  A
C523        C528   1.395       .  A
C523        H530   1.082       .  S
C524        C525   1.405       .  A
C525        C526   1.402       .  A
C525        F532   1.357       .  S
C526        C527   1.413       .  A
C526        H531   1.073       .  S
C527        C528   1.412       .  A
C528        F529   1.358       .  S
C533        C534   1.405       .  A
C533        C538   1.408       .  A
C533        H540   1.083       .  S
C534        C535   1.402       .  A
C535        C536   1.397       .  A
C535        F542   1.358       .  S
C536        C537   1.410       .  A
C536        H541   1.083       .  S
C537        C538   1.412       .  A
C538        F539   1.357       .  S
C543        C544   1.407       .  A
C543        C548   1.401       .  A
C543        H550   1.083       .  S
C544        C545   1.403       .  A
C545        C546   1.399       .  A
C545        F552   1.357       .  S
C546        C547   1.407       .  A
C546        H551   1.084       .  S
C547        C548   1.404       .  A
C553        C554   1.406       .  A
C553        C558   1.399       .  A
C553        H560   1.083       .  S
C554        C555   1.410       .  A
C555        C556   1.406       .  A
C555        F562   1.357       .  S
C556        C557   1.405       .  A
C556        H561   1.081       .  S
C557        C558   1.404       .  A
C558        F559   1.358       .  S
C563        C564   1.395       .  A
C563        C568   1.391       .  A
C563        H570   1.084       .  S
C564        C565   1.401       .  A
C565        C566   1.402       .  A
C565        F572   1.357       .  S
C566        C567   1.412       .  A
C566        H571   1.077       .  S
C567        C568   1.415       .  A
C568        F569   1.358       .  S
C573        C574   1.408       .  A
C573        C578   1.398       .  A
C573        H580   1.083       .  S
C574        C575   1.406       .  A
C575        C576   1.392       .  A
C575        F582   1.358   1_455  S
C576        C577   1.406       .  A
C576        H581   1.083       .  S
C577        C578   1.405       .  A
C578        F579   1.355       .  S
C583        C584   1.405       .  A
C583        C588   1.390       .  A
C583        H590   1.083       .  S
C584        C585   1.408       .  A
C585        C586   1.405       .  A
C585        F592   1.357       .  S
C586        C587   1.413       .  A
C586        H591   1.077       .  S
C587        C588   1.410       .  A
C588       F1231   1.359       .  S
F589       C1230   1.359       .  S
C593        C594   1.408       .  A
C593        C598   1.389       .  A
C593        H600   1.083       .  S
C594        C595   1.412       .  A
C595        C596   1.409       .  A
C595        F602   1.357       .  S
C596        C597   1.405       .  A
C596        H601   1.083       .  S
C597        C598   1.401       .  A
C598        F599   1.358       .  S
C603        C604   1.407       .  A
C603        C608   1.406       .  A
C603        H610   1.083       .  S
C604        C605   1.404       .  A
C605        C606   1.401       .  A
C605        F612   1.356       .  S
C606        C607   1.406       .  A
C606        H611   1.083       .  S
C607        C608   1.407       .  A
C608        F609   1.357       .  S
C613        C614   1.404       .  A
C613        C618   1.396       .  A
C613        H620   1.084       .  S
C614        C615   1.411       .  A
C615        C616   1.400       .  A
C615        F622   1.357       .  S
C616        C617   1.400       .  A
C616        H621   1.082       .  S
C617        C618   1.410       .  A
C618        F619   1.358       .  S
C623       C1266   1.407       .  A
C623        C628   1.402   1_655  A
C623        H630   1.083       .  S
C624       C1265   1.407       .  A
C624        C625   1.407       .  A
C625       C1268   1.395       .  A
C625        F632   1.358       .  S
C626       C1267   1.395   1_455  A
C626        C627   1.408       .  A
C626        H631   1.084       .  S
C627        C628   1.405       .  A
C628        F629   1.349       .  S
C633        C634   1.412       .  A
C633        C638   1.393       .  A
C633        H640   1.078       .  S
C634        C635   1.410       .  A
C635        F642   1.358       .  S
C636        C637   1.404       .  A
C636        H641   1.083       .  S
C638        F639   1.358   1_565  S
O643        C659   1.271       .  A
O643       Zn649   2.009       .  S
C644        O660   1.274       .  A
C644        O657   1.274       .  A
C644        C958   1.478       .  S
O645        C658   1.279       .  A
O645       Cd652   2.109       .  S
O646        C664   1.276       .  A
O646       Cd655   2.064       .  S
O647        C661   1.275       .  A
O647       Cd651   2.074       .  S
O648        C659   1.273       .  A
O648       Cd651   2.067       .  S
Zn649       O660   2.008       .  S
Zn649       O662   1.995       .  S
Zn649       O654   1.934       .  S
O650        C661   1.274       .  A
O650       Cd655   2.076       .  S
Cd651       O653   2.048       .  S
Cd651       O654   1.986       .  S
Cd652       O656   2.093       .  S
Cd652       O665   2.107       .  S
Cd652       O654   2.028       .  S
O653        C663   1.275       .  A
O654       Cd655   1.997       .  S
Cd655       O657   2.061       .  S
O656        C663   1.278       .  A
C658        O662   1.273       .  A
C658        C915   1.492       .  S
C659        C935   1.484       .  S
C661        C945   1.487       .  S
C663        C905   1.485       .  S
C664        O665   1.280       .  A
C664        C928   1.481       .  S
C666        C667   1.528       .  S
C666        C672   1.532       .  S
C666        C670   1.536       .  S
C666        C955   1.531       .  S
C667        H674   1.086       .  S
C667        C668   1.361       .  D
C668        C669   1.548       .  S
C668        C938   1.487       .  S
C669        C673   1.548       .  S
C669        C671   1.555       .  S
C669        H675   1.104       .  S
C670        H676   1.082       .  S
C670        C671   1.375       .  D
C671        C730   1.503       .  S
C672        H677   1.079       .  S
C672        C673   1.363       .  D
C673        C948   1.496       .  S
C678        C684   1.534       .  S
C678        C682   1.537       .  S
C678        C908   1.529       .  S
C679        H686   1.087       .  S
C679       C1001   1.361       .  D
C680        C681   1.539       .  S
C680       C1000   1.361   1_545  D
C680        C918   1.481       .  S
C681        C683   1.544   1_545  S
C681        H687   1.111       .  S
C682        H688   1.083       .  S
C683        C765   1.479   1_566  S
C684        H689   1.087       .  S
C684       C1006   1.364       .  D
C685       C1005   1.366   1_545  D
C685        C925   1.485       .  S
O690        C706   1.276       .  A
O690      Zn1017   2.041       .  S
C691        O707   1.274       .  A
C691        O704   1.271       .  A
C691        C885   1.463       .  S
O692        C705   1.280       .  A
O692      Cd1020   2.103   1_545  S
O693        C711   1.272       .  A
O693       Cd702   2.048       .  S
O694        C708   1.274       .  A
O695        C706   1.275       .  A
O695       Cd698   2.073       .  S
Zn696      O1011   2.051   1_545  S
Zn696       O709   2.003       .  S
Zn696      O1022   1.945   1_545  S
O697        C708   1.272       .  A
O697      Cd1023   2.059       .  S
Cd698       O700   2.062       .  S
Cd698       O701   1.987       .  S
Cd699      O1013   2.102       .  S
Cd699       O703   2.110       .  S
Cd699       O701   2.025       .  S
O700        C710   1.276       .  A
O701      Zn1017   1.943       .  S
Cd702      O1018   2.052   1_545  S
Cd702       O704   2.051       .  S
O703        C710   1.280       .  A
C705        O709   1.275       .  A
C705        C868   1.483       .  S
C706        C875   1.479       .  S
C708        C895   1.482       .  S
C710        C858   1.495       .  S
C711        O712   1.278       .  A
C711        C845   1.487       .  S
C713        C714   1.535       .  S
C713        C719   1.530       .  S
C713        C717   1.538       .  S
C713        C848   1.532       .  S
C714        H721   1.087       .  S
C714        C715   1.364       .  D
C715        C716   1.543       .  S
C715        C855   1.487       .  S
C716        C720   1.546       .  S
C716        C718   1.540       .  S
C716        H722   1.111       .  S
C717        H723   1.082       .  S
C717        C718   1.370       .  D
C718        C777   1.478       .  S
C719        H724   1.087       .  S
C719        C720   1.364       .  D
C720        C865   1.476       .  S
C725        C726   1.532       .  S
C725        C731   1.529       .  S
C725        C729   1.543       .  S
C725        C888   1.527       .  S
C726        H733   1.087       .  S
C726        C727   1.358       .  D
C727        C728   1.541       .  S
C727        C878   1.478       .  S
C728        C732   1.539       .  S
C728        C730   1.555       .  S
C728        H734   1.105       .  S
C729        H735   1.076       .  S
C729        C730   1.377       .  D
C731        H736   1.087       .  S
C731        C732   1.361       .  D
C732        C898   1.482       .  S
O737        C753   1.273       .  A
O737       Zn743   2.018       .  S
C738        O754   1.274       .  A
C738        O751   1.275       .  A
C738        C805   1.478       .  S
O739        C752   1.279       .  A
O739       Cd746   2.108       .  S
O740        C758   1.275       .  A
O740       Cd749   2.060       .  S
O741        C755   1.276       .  A
O741       Cd745   2.084       .  S
O742        C753   1.275       .  A
O742       Cd745   2.077       .  S
Zn743       O754   2.009       .  S
Zn743       O756   2.015       .  S
Zn743       O748   1.943       .  S
O744        C755   1.273       .  A
O744       Cd749   2.070       .  S
Cd745       O747   2.056       .  S
Cd745       O748   1.997       .  S
Cd746       O750   2.080       .  S
Cd746       O759   2.109       .  S
Cd746       O748   2.028       .  S
O747        C757   1.276       .  A
O748       Cd749   1.992       .  S
Cd749       O751   2.061       .  S
O750        C757   1.277       .  A
C752        O756   1.275       .  A
C752        C825   1.486       .  S
C753        C788   1.489       .  S
C755        C798   1.483       .  S
C757        C818   1.483       .  S
C758        O759   1.279       .  A
C758        C835   1.494       .  S
C760       C1087   1.531       .  S
C760        C764   1.531       .  S
C760        C808   1.528       .  S
C761        H768   1.086   1_455  S
C761        C762   1.366   1_455  D
C762       C1084   1.550   1_655  S
C762        C785   1.498       .  S
C763       C1083   1.550   1_545  S
C763        H769   1.109       .  S
C764        H770   1.087       .  S
C764       C1086   1.367       .  D
C765       C1085   1.368   1_545  D
C766       C1081   1.531   1_545  S
C766        H771   1.082       .  S
C766        C767   1.363       .  D
C767        C795   1.485       .  S
C772        C773   1.538       .  S
C772        C778   1.526       .  S
C772        C776   1.535       .  S
C772        C815   1.525       .  S
C773        H780   1.087       .  S
C773        C774   1.362       .  D
C774        C775   1.545       .  S
C774        C828   1.483       .  S
C775        C779   1.551       .  S
C775        C777   1.549       .  S
C775        H781   1.111       .  S
C776        H782   1.083       .  S
C776        C777   1.369       .  D
C778        H783   1.087       .  S
C778        C779   1.360       .  D
C779        C838   1.484       .  S
C784        C785   1.410       .  A
C784        C789   1.395       .  A
C784        H791   1.083       .  S
C785        C786   1.406       .  A
C786        C787   1.403       .  A
C786        F793   1.353       .  S
C787        C788   1.409       .  A
C787        H792   1.083       .  S
C788        C789   1.407       .  A
C789        F790   1.358       .  S
C794        C795   1.407       .  A
C794        C799   1.400       .  A
C794        H801   1.084       .  S
C795        C796   1.404       .  A
C796        C797   1.400       .  A
C797        C798   1.406       .  A
C797        H802   1.083       .  S
C798        C799   1.406       .  A
C799        F800   1.357       .  S
C804        C805   1.402       .  A
C804        C809   1.394       .  A
C804        H811   1.084       .  S
C805        C806   1.406       .  A
C806        C807   1.396       .  A
C806        F813   1.358       .  S
C807        C808   1.410       .  A
C807        H812   1.077       .  S
C808        C809   1.413       .  A
C809        F810   1.358       .  S
C814        C815   1.410       .  A
C814        C819   1.402       .  A
C814        H821   1.077       .  S
C815        C816   1.411       .  A
C816        C817   1.390       .  A
C816        F823   1.358       .  S
C817        C818   1.403       .  A
C817        H822   1.083       .  S
C818        C819   1.409       .  A
C819        F820   1.357       .  S
C824       C1146   1.407   1_545  A
C824        C829   1.399       .  A
C824        H831   1.083       .  S
C825       C1145   1.407       .  A
C825        C826   1.408       .  A
C826       C1148   1.405       .  A
C826        F833   1.357       .  S
C827       C1147   1.407   1_545  A
C827        C828   1.406       .  A
C827        H832   1.083       .  S
C828        C829   1.401       .  A
C829        F830   1.355       .  S
C834        C839   1.392       .  A
C834        H841   1.083       .  S
C835        C836   1.414       .  A
C836        F843   1.357       .  S
C837        C838   1.405       .  A
C837        H842   1.083       .  S
C838        C839   1.404       .  A
C839        F840   1.357       .  S
C844        C845   1.404       .  A
C844        C849   1.393       .  A
C844        H851   1.083       .  S
C845        C846   1.407       .  A
C846        C847   1.404       .  A
C846        F853   1.357       .  S
C847        C848   1.413       .  A
C847        H852   1.077       .  S
C848        C849   1.412       .  A
C849        F850   1.358       .  S
C854        C855   1.405       .  A
C854        C859   1.409       .  A
C854        H861   1.083       .  S
C855        C856   1.403       .  A
C856        C857   1.395       .  A
C856        F863   1.358       .  S
C857        C858   1.409       .  A
C857        H862   1.083       .  S
C858        C859   1.413       .  A
C859        F860   1.357       .  S
C864        C865   1.405       .  A
C864        C869   1.403       .  A
C864        H871   1.083       .  S
C865        C866   1.401       .  A
C866        C867   1.397       .  A
C866        F873   1.358       .  S
C867        C868   1.408       .  A
C867        H872   1.083       .  S
C868        C869   1.407       .  A
C869       F1191   1.357       .  S
F870       C1190   1.357       .  S
C874        C875   1.406       .  A
C874        C879   1.401       .  A
C874        H881   1.083       .  S
C875        C876   1.406       .  A
C876        C877   1.402       .  A
C876        F883   1.358       .  S
C877        C878   1.404       .  A
C877        H882   1.083       .  S
C878        C879   1.403       .  A
C879        F880   1.357       .  S
C884        C885   1.395       .  A
C884        C889   1.391       .  A
C884        H891   1.084       .  S
C885        C886   1.401       .  A
C886        C887   1.402       .  A
C886        F893   1.357       .  S
C887        C888   1.412       .  A
C887        H892   1.077       .  S
C888        C889   1.415       .  A
C889        F890   1.358       .  S
C894        C895   1.409       .  A
C894        C899   1.399       .  A
C894        H901   1.083       .  S
C895        C896   1.408       .  A
C896        C897   1.393       .  A
C896        F903   1.358       .  S
C897        C898   1.405       .  A
C897        H902   1.083       .  S
C898        C899   1.404       .  A
C899        F900   1.356       .  S
C904        C905   1.403       .  A
C904        C909   1.388       .  A
C904        H911   1.083       .  S
C905        C906   1.409       .  A
C906        C907   1.405       .  A
C906        F913   1.357       .  S
C907        C908   1.412       .  A
C907        H912   1.079       .  S
C908        C909   1.411       .  A
C914        C915   1.408       .  A
C914        C919   1.392       .  A
C914        H921   1.083       .  S
C915        C916   1.413       .  A
C916        C917   1.408       .  A
C916        F923   1.357       .  S
C917        C918   1.404       .  A
C917        H922   1.083       .  S
C918        C919   1.402       .  A
C919        F920   1.358       .  S
C924        C925   1.407       .  A
C924        C929   1.406       .  A
C924        H931   1.083       .  S
C925        C926   1.403       .  A
C926        C927   1.398       .  A
C926        F933   1.356   1_655  S
C927        C928   1.405       .  A
C927        H932   1.083       .  S
C928        C929   1.407       .  A
C929        F930   1.357       .  S
C934        C935   1.404       .  A
C934        C939   1.396       .  A
C934        H941   1.083       .  S
C935        C936   1.411       .  A
C936        C937   1.399       .  A
C936        F943   1.357       .  S
C937        C938   1.400       .  A
C937        H942   1.074       .  S
C938        C939   1.410       .  A
C939        F940   1.358       .  S
C944        C949   1.404       .  A
C944        H951   1.083       .  S
C945        C946   1.407       .  A
C946        F953   1.358       .  S
C947        C948   1.408       .  A
C947        H952   1.084       .  S
C948        C949   1.406       .  A
C949        F950   1.351       .  S
C954        C955   1.411       .  A
C954        C959   1.393       .  A
C954        H961   1.075       .  S
C955        C956   1.412       .  A
C956       C1278   1.398       .  A
C956        F963   1.358       .  S
C957       C1277   1.397       .  A
C957        C958   1.405   1_565  A
C957        H962   1.083   1_565  S
C958       C1280   1.405   1_545  A
C959       C1279   1.406       .  A
C959        F960   1.358       .  S
O964        C980   1.272       .  A
O964       Zn970   2.019       .  S
C965        O981   1.273       .  A
C965        O978   1.276       .  A
C965       C1279   1.479       .  S
O966        C979   1.279       .  A
O966       Cd973   2.112       .  S
O967        C985   1.277       .  A
O967       Cd976   2.074       .  S
O968        C982   1.274       .  A
O968       Cd972   2.064       .  S
O969        C980   1.273       .  A
O969       Cd972   2.064       .  S
Zn970       O981   2.001       .  S
Zn970       O983   1.983       .  S
Zn970       O975   1.935       .  S
O971        C982   1.274       .  A
O971       Cd976   2.077       .  S
Cd972       O974   2.042       .  S
Cd972       O975   1.984       .  S
Cd973       O977   2.102       .  S
Cd973       O986   2.113       .  S
Cd973       O975   2.032       .  S
O974        C984   1.274       .  A
O975       Cd976   2.002       .  S
Cd976       O978   2.073       .  S
O977        C984   1.280       .  A
C979        O983   1.272       .  A
C979       C1236   1.491       .  S
C980       C1256   1.487       .  S
C982       C1266   1.485       .  S
C984       C1226   1.487       .  S
C985        O986   1.281       .  A
C985       C1249   1.485       .  S
C987        C988   1.530       .  S
C987        C993   1.530       .  S
C987        C991   1.533       .  S
C987       C1276   1.530       .  S
C988        H995   1.086       .  S
C988        C989   1.364       .  D
C989        C990   1.549       .  S
C989       C1259   1.493       .  S
C990        C994   1.550       .  S
C990        C992   1.557       .  S
C990        H996   1.104       .  S
C991        H997   1.082       .  S
C991        C992   1.374       .  D
C992       C1051   1.503       .  S
C993        H998   1.082       .  S
C993        C994   1.360       .  D
C994       C1269   1.494       .  S
C999       C1005   1.535       .  S
C999       C1003   1.536       .  S
C999       C1229   1.530       .  S
C1000      H1007   1.087       .  S
C1001      C1002   1.539       .  S
C1001      C1239   1.480       .  S
C1002      C1004   1.545       .  S
C1002      H1008   1.111       .  S
C1003      H1009   1.082       .  S
C1004      C1086   1.479   1_556  S
C1005      H1010   1.087       .  S
C1006      C1246   1.487       .  S
O1011      C1027   1.277       .  A
C1012      O1028   1.273       .  A
C1012      O1025   1.272       .  A
C1012      C1206   1.461       .  S
O1013      C1026   1.279       .  A
O1014      C1032   1.274       .  A
O1014     Cd1023   2.052       .  S
O1015      C1029   1.274       .  A
O1016      C1027   1.275       .  A
O1016     Cd1019   2.072       .  S
Zn1017     O1030   2.005       .  S
O1018      C1029   1.272       .  A
Cd1019     O1021   2.065       .  S
Cd1019     O1022   1.986       .  S
Cd1020     O1024   2.113       .  S
Cd1020     O1022   2.027       .  S
O1021      C1031   1.276       .  A
Cd1023     O1025   2.060       .  S
O1024      C1031   1.281       .  A
C1026      O1030   1.274       .  A
C1026      C1189   1.478       .  S
C1027      C1196   1.486       .  S
C1029      C1216   1.479       .  S
C1031      C1179   1.495       .  S
C1032      O1033   1.278       .  A
C1032      C1166   1.483       .  S
C1034      C1035   1.535       .  S
C1034      C1040   1.530       .  S
C1034      C1038   1.538       .  S
C1034      C1169   1.531       .  S
C1035      H1042   1.087       .  S
C1035      C1036   1.362       .  D
C1036      C1037   1.544       .  S
C1036      C1176   1.484       .  S
C1037      C1041   1.550       .  S
C1037      C1039   1.541       .  S
C1037      H1043   1.111       .  S
C1038      H1044   1.080       .  S
C1038      C1039   1.369       .  D
C1039      C1098   1.480       .  S
C1040      H1045   1.087       .  S
C1040      C1041   1.365       .  D
C1041      C1186   1.481       .  S
C1046      C1047   1.529       .  S
C1046      C1052   1.529       .  S
C1046      C1050   1.544       .  S
C1046      C1209   1.526       .  S
C1047      H1054   1.087       .  S
C1047      C1048   1.358       .  D
C1048      C1049   1.544       .  S
C1048      C1199   1.483       .  S
C1049      C1053   1.539       .  S
C1049      C1051   1.556       .  S
C1049      H1055   1.104       .  S
C1050      H1056   1.076       .  S
C1050      C1051   1.376       .  D
C1052      H1057   1.087       .  S
C1052      C1053   1.363       .  D
C1053      C1219   1.483       .  S
O1058      C1074   1.273       .  A
O1058     Zn1064   2.021       .  S
C1059      O1075   1.274       .  A
C1059      O1072   1.276       .  A
C1059      C1126   1.481       .  S
O1060      C1073   1.280       .  A
O1060     Cd1067   2.115       .  S
O1061      C1079   1.276       .  A
O1061     Cd1070   2.058       .  S
O1062      C1076   1.275       .  A
O1062     Cd1066   2.081       .  S
O1063      C1074   1.275       .  A
O1063     Cd1066   2.072       .  S
Zn1064     O1075   2.009       .  S
Zn1064     O1077   2.014       .  S
Zn1064     O1069   1.944       .  S
O1065      C1076   1.273       .  A
O1065     Cd1070   2.074       .  S
Cd1066     O1068   2.059       .  S
Cd1066     O1069   1.996       .  S
Cd1067     O1071   2.090       .  S
Cd1067     O1080   2.112       .  S
Cd1067     O1069   2.031       .  S
O1068      C1078   1.276       .  A
O1069     Cd1070   1.996       .  S
Cd1070     O1072   2.069       .  S
O1071      C1078   1.279       .  A
C1073      O1077   1.275       .  A
C1073      C1146   1.488       .  S
C1074      C1109   1.489       .  S
C1076      C1119   1.484       .  S
C1078      C1139   1.487       .  S
C1079      O1080   1.280       .  A
C1079      C1156   1.494       .  S
C1081      C1085   1.530       .  S
C1081      C1129   1.529       .  S
C1082      H1089   1.086   1_455  S
C1082      C1083   1.366   1_455  D
C1083      C1106   1.498       .  S
C1084      H1090   1.109   1_455  S
C1085      H1091   1.087       .  S
C1087      H1092   1.082       .  S
C1087      C1088   1.364       .  D
C1088      C1116   1.486       .  S
C1093      C1094   1.540       .  S
C1093      C1099   1.525       .  S
C1093      C1097   1.535       .  S
C1093      C1136   1.529       .  S
C1094      H1101   1.087       .  S
C1094      C1095   1.365       .  D
C1095      C1096   1.544       .  S
C1095      C1149   1.483       .  S
C1096      C1100   1.548       .  S
C1096      C1098   1.548       .  S
C1096      H1102   1.111       .  S
C1097      H1103   1.083       .  S
C1097      C1098   1.370       .  D
C1099      H1104   1.087       .  S
C1099      C1100   1.361       .  D
C1100      C1159   1.483       .  S
C1105      C1106   1.409       .  A
C1105      C1110   1.394       .  A
C1105      H1112   1.083       .  S
C1106      C1107   1.407       .  A
C1107      C1108   1.404       .  A
C1107      F1114   1.353   1_565  S
C1108      C1109   1.410       .  A
C1108      H1113   1.083       .  S
C1109      C1110   1.407       .  A
C1110      F1111   1.358       .  S
C1115      C1116   1.407       .  A
C1115      C1120   1.400       .  A
C1115      H1122   1.084       .  S
C1116      C1117   1.404       .  A
C1117      C1118   1.401       .  A
C1118      C1119   1.406       .  A
C1118      H1123   1.083       .  S
C1119      C1120   1.406       .  A
C1120      F1121   1.357       .  S
C1125      C1126   1.403       .  A
C1125      C1130   1.397       .  A
C1125      H1132   1.084       .  S
C1126      C1127   1.407       .  A
C1127      C1128   1.395   1_565  A
C1127      F1134   1.358   1_565  S
C1128      C1129   1.409   1_545  A
C1128      H1133   1.077       .  S
C1129      C1130   1.413       .  A
C1130      F1131   1.358       .  S
C1135      C1136   1.411       .  A
C1135      C1140   1.403       .  A
C1135      H1142   1.078       .  S
C1136      C1137   1.411       .  A
C1137      C1138   1.393       .  A
C1137      F1144   1.358       .  S
C1138      C1139   1.405       .  A
C1138      H1143   1.083       .  S
C1139      C1140   1.409       .  A
C1140      F1141   1.357       .  S
C1145      C1150   1.400       .  A
C1145      H1152   1.083       .  S
C1146      C1147   1.408       .  A
C1147      F1154   1.357       .  S
C1148      C1149   1.406       .  A
C1148      H1153   1.083       .  S
C1149      C1150   1.402       .  A
C1150      F1151   1.356       .  S
C1155      C1160   1.390       .  A
C1155      H1162   1.083       .  S
C1156      C1157   1.414       .  A
C1157      F1164   1.357       .  S
C1158      C1159   1.405       .  A
C1158      H1163   1.083       .  S
C1159      C1160   1.403       .  A
C1160      F1161   1.358       .  S
C1165      C1166   1.404       .  A
C1165      C1170   1.395       .  A
C1165      H1172   1.082       .  S
C1166      C1167   1.405       .  A
C1167      C1168   1.402       .  A
C1167      F1174   1.357       .  S
C1168      C1169   1.413       .  A
C1168      H1173   1.074       .  S
C1169      C1170   1.412       .  A
C1170      F1171   1.358       .  S
C1175      C1176   1.405       .  A
C1175      C1180   1.408       .  A
C1175      H1182   1.083       .  S
C1176      C1177   1.402       .  A
C1177      C1178   1.397       .  A
C1177      F1184   1.358       .  S
C1178      C1179   1.410       .  A
C1178      H1183   1.083       .  S
C1179      C1180   1.412       .  A
C1180      F1181   1.357       .  S
C1185      C1186   1.407       .  A
C1185      C1190   1.402       .  A
C1185      H1192   1.083       .  S
C1186      C1187   1.403       .  A
C1187      C1188   1.400       .  A
C1187      F1194   1.357       .  S
C1188      C1189   1.407       .  A
C1188      H1193   1.084       .  S
C1189      C1190   1.404       .  A
C1195      C1196   1.406       .  A
C1195      C1200   1.399       .  A
C1195      H1202   1.083       .  S
C1196      C1197   1.409       .  A
C1197      C1198   1.406       .  A
C1197      F1204   1.357       .  S
C1198      C1199   1.405       .  A
C1198      H1203   1.082       .  S
C1199      C1200   1.403       .  A
C1200      F1201   1.358       .  S
C1205      C1206   1.394       .  A
C1205      C1210   1.391       .  A
C1205      H1212   1.084       .  S
C1206      C1207   1.401       .  A
C1207      C1208   1.402       .  A
C1207      F1214   1.357       .  S
C1208      C1209   1.412       .  A
C1208      H1213   1.077       .  S
C1209      C1210   1.415       .  A
C1210      F1211   1.358       .  S
C1215      C1216   1.408       .  A
C1215      C1220   1.398       .  A
C1215      H1222   1.083       .  S
C1216      C1217   1.406       .  A
C1217      C1218   1.392       .  A
C1217      F1224   1.358       .  S
C1218      C1219   1.406       .  A
C1218      H1223   1.083       .  S
C1219      C1220   1.404       .  A
C1220      F1221   1.355       .  S
C1225      C1226   1.405       .  A
C1225      C1230   1.390       .  A
C1225      H1232   1.083       .  S
C1226      C1227   1.408       .  A
C1227      C1228   1.405       .  A
C1227      F1234   1.357       .  S
C1228      C1229   1.413       .  A
C1228      H1233   1.077       .  S
C1229      C1230   1.410       .  A
C1235      C1236   1.408       .  A
C1235      C1240   1.389       .  A
C1235      H1242   1.083       .  S
C1236      C1237   1.412       .  A
C1237      C1238   1.409       .  A
C1237      F1244   1.357       .  S
C1238      C1239   1.405       .  A
C1238      H1243   1.083       .  S
C1239      C1240   1.402       .  A
C1240      F1241   1.358       .  S
C1245      C1246   1.407       .  A
C1245      C1250   1.406       .  A
C1245      H1252   1.083       .  S
C1246      C1247   1.404       .  A
C1247      C1248   1.401       .  A
C1247      F1254   1.356   1_655  S
C1248      C1249   1.406       .  A
C1248      H1253   1.083       .  S
C1249      C1250   1.407       .  A
C1250      F1251   1.357       .  S
C1255      C1256   1.404       .  A
C1255      C1260   1.395       .  A
C1255      H1262   1.084       .  S
C1256      C1257   1.411       .  A
C1257      C1258   1.401       .  A
C1257      F1264   1.357       .  S
C1258      C1259   1.401       .  A
C1258      H1263   1.081       .  S
C1259      C1260   1.410       .  A
C1260      F1261   1.358       .  S
C1265      C1270   1.402       .  A
C1265      H1272   1.083       .  S
C1266      C1267   1.407       .  A
C1267      F1274   1.358       .  S
C1268      C1269   1.408       .  A
C1268      H1273   1.084       .  S
C1269      C1270   1.405       .  A
C1270      F1271   1.349       .  S
C1275      C1276   1.411       .  A
C1275      C1280   1.393       .  A
C1275      H1282   1.078       .  S
C1276      C1277   1.410       .  A
C1277      F1284   1.358       .  S
C1278      C1279   1.404       .  A
C1278      H1283   1.083       .  S
C1280      F1281   1.358   1_565  S
