geometry optimzed in LAMMPS
_audit_creation_date              2020-11-30 
_audit_creation_method            'lammps2cif' 
_symmetry_space_group_name_H-M    'P1' 
_symmetry_Int_Tables_number       1 
_symmetry_cell_setting            triclinic 
loop_ 
_symmetry_equiv_pos_as_xyz 
  x,y,z 
_cell_length_a                    46.16362537 
_cell_length_b                    45.733131408469575 
_cell_length_c                    45.675134727806125 
_cell_angle_alpha                 89.8357257578598 
_cell_angle_beta                  89.93181394237435 
_cell_angle_gamma                 89.8521868214833 
loop_ 
_atom_site_label 
_atom_site_type_symbol 
_atom_site_fract_x 
_atom_site_fract_y 
_atom_site_fract_z 
_atom_site_charge 
N1          N  0.99202659  0.25148285  0.29585442    -0.36700
N2          N  0.99119542  0.20721798  0.25025924    -0.57300
N3          N  0.98664365  0.25157758  0.20530610    -0.36700
N4          N  0.98404526  0.29599986  0.25092776    -0.57300
C5          C  0.98760731  0.22704061  0.31199638     0.26900
C6          C  0.98431745  0.27472353  0.31246157     0.26900
C7          C  0.98001926  0.22751264  0.18958287     0.26900
C8          C  0.97812474  0.27513633  0.18961629     0.26900
C9          C  0.99955181  0.19082863  0.27336618     0.35500
C10         C  0.99601385  0.19080395  0.22622411     0.35500
C11         C  0.99127428  0.31257656  0.27428980     0.35500
C12         C  0.98950069  0.31256403  0.22697261     0.35500
C13         C  0.97723408  0.23484888  0.33941404    -0.22000
C14         C  0.97519416  0.26498166  0.33971643    -0.22000
C15         C  0.96730410  0.23588200  0.16334538    -0.22000
C16         C  0.96619401  0.26605156  0.16332818    -0.22000
C17         C  0.01020346  0.16406956  0.26393890    -0.23100
C18         C  0.00792751  0.16404072  0.23402026    -0.23100
C19         C  0.00139640  0.33958300  0.26512860    -0.23100
C20         C  0.00034362  0.33955670  0.23517487    -0.23100
C21         C  0.99390716  0.19811870  0.30282009    -0.18400
C22         C  0.98702423  0.30439056  0.30384842    -0.18400
C23         C  0.98288090  0.30446635  0.19789758    -0.18400
C24         C  0.98685653  0.19847279  0.19778451    -0.18400
H25         H  0.97185182  0.22039002  0.35740108     0.14500
H26         H  0.96795476  0.27817662  0.35795578     0.14500
H27         H  0.95996565  0.22176814  0.14589187     0.14500
H28         H  0.95780576  0.27972234  0.14589535     0.14500
H29         H  0.01791364  0.14609061  0.27730780     0.12800
H30         H  0.01365314  0.14609385  0.21971577     0.12800
H31         H  0.00884593  0.35744381  0.27863819     0.12800
H32         H  0.00679376  0.35743368  0.22105015     0.12800
H33         H  0.00249554  0.25244328  0.27570332     0.26000
H34         H  0.99926798  0.25216640  0.22412926     0.26000
O35         O  0.00176409  0.08355100  0.04941481    -0.86600
O36         O  0.00855041  0.41886612  0.04922963    -0.86800
O37         O  0.45742849  0.50095726  0.08591189    -0.88400
O38         O  0.05291625  0.50090459  0.08355355    -0.87200
O39         O  0.08665158  0.50051198  0.04646746    -0.86800
O40         O  0.42100716  0.49797399  0.05173850    -0.88100
O41         O  0.00571350  0.45343586  0.08550054    -0.86600
O42         O  0.00323188  0.04862575  0.08565414    -0.86200
Zr43       Zr  0.00425685  0.50137742  0.06126680     2.84300
O44         O  0.03380032  0.47331742  0.03059599    -1.08200
O45         O  0.47331164  0.02933115  0.03234282    -1.08900
C46         C  0.00266241  0.07538150  0.07639528     1.06500
C47         C  0.00777122  0.42676198  0.07628129     1.06500
C48         C  0.43046506  0.49964682  0.07841990     1.09400
C49         C  0.07926727  0.49968053  0.07370453     1.07200
H50         H  0.46372828  0.45803562  0.04490440     0.32800
O51         O  0.47496981  0.47077929  0.03248989    -1.29100
H52         H  0.04437396  0.04374367  0.04294849     0.32400
O53         O  0.03242760  0.03142870  0.03087371    -1.30800
O54         O  0.00712355  0.41857024  0.45479136    -0.86600
O55         O  0.00358189  0.08462192  0.45495891    -0.88100
O56         O  0.42187329  0.45096506  0.50207615    -0.86700
O57         O  0.08728485  0.45615405  0.50071807    -0.86700
O58         O  0.08382696  0.05235251  0.50041992    -0.86400
O59         O  0.41816179  0.04550602  0.50171162    -0.86200
O60         O  0.45455284  0.50161078  0.41947044    -0.86600
O61         O  0.04768921  0.50512595  0.41713539    -0.86100
O62         O  0.41946599  0.49775371  0.45503943    -0.87100
O63         O  0.08424668  0.50415722  0.45120102    -0.86300
O64         O  0.45884893  0.41727644  0.50280430    -0.86700
O65         O  0.45152124  0.08268393  0.50148375    -0.86400
O66         O  0.04682310  0.08589925  0.50331020    -0.86100
O67         O  0.05246490  0.42052782  0.50442085    -0.86500
O68         O  0.00272306  0.45335019  0.41867170    -0.86800
O69         O  0.00191033  0.04981161  0.41882934    -0.88100
Zr70       Zr  0.00502827  0.44316857  0.50169485     2.83100
Zr71       Zr  0.00028263  0.06005823  0.50183933     2.83500
Zr72       Zr  0.44406807  0.49926989  0.50307895     2.84100
Zr73       Zr  0.06196093  0.50341243  0.49986805     2.83400
Zr74       Zr  0.00172519  0.50176628  0.44259672     2.84200
O75         O  0.03031162  0.03206190  0.47148150    -1.08700
O76         O  0.47386290  0.47112102  0.47260063    -1.08200
C77         C  0.00541865  0.42655267  0.42774187     1.06500
C78         C  0.00370013  0.07653767  0.42795339     1.09100
C79         C  0.43176394  0.42452183  0.50261542     1.06700
C80         C  0.07896931  0.42929436  0.50354626     1.07000
C81         C  0.07401700  0.07885733  0.50231786     1.06600
C82         C  0.42515679  0.07283278  0.50102041     1.06200
C83         C  0.42799695  0.49972486  0.42802011     1.06600
C84         C  0.07461793  0.50521574  0.42461838     1.06100
H85         H  0.45911491  0.04173429  0.46061685     0.32800
O86         O  0.47155140  0.02978697  0.47270128    -1.29800
H87         H  0.04521600  0.46114501  0.45865246     0.32800
O88         O  0.03301859  0.47298437  0.47101457    -1.31200
N89         N  0.25109996  0.49355267  0.20797733    -0.36700
N90         N  0.29750260  0.49170767  0.25163585    -0.57300
N91         N  0.25373840  0.48905105  0.29681503    -0.36700
N92         N  0.20786542  0.49398349  0.25364313    -0.57300
C93         C  0.27457860  0.50089420  0.19186752     0.26900
C94         C  0.22733956  0.50241105  0.19291486     0.26900
C95         C  0.27783359  0.49416290  0.31279667     0.26900
C96         C  0.23073118  0.49636046  0.31364474     0.26900
C97         C  0.31292060  0.48600201  0.22710503     0.35500
C98         C  0.31426280  0.48351204  0.27456691     0.35500
C99         C  0.19094805  0.48881604  0.23013199     0.35500
C100        C  0.19227320  0.48615953  0.27741809     0.35500
C101        C  0.26566693  0.51490729  0.16641821    -0.22000
C102        C  0.23583526  0.51587166  0.16708929    -0.22000
C103        C  0.27013892  0.50521702  0.33993954    -0.22000
C104        C  0.24040452  0.50693313  0.34036080    -0.22000
C105        C  0.33969960  0.47430591  0.23456017    -0.23100
C106        C  0.34059504  0.47290039  0.26465841    -0.23100
C107        C  0.16451834  0.47749011  0.23892365    -0.23100
C108        C  0.16540769  0.47565566  0.26895278    -0.23100
C109        C  0.30350327  0.49262670  0.19827065    -0.18400
C110        C  0.19831288  0.49680222  0.20121623    -0.18400
C111        C  0.20143353  0.49063419  0.30657119    -0.18400
C112        C  0.30633265  0.48677755  0.30428769    -0.18400
H113        H  0.27925434  0.52312422  0.14892311     0.14500
H114        H  0.22200168  0.52499885  0.15025516     0.14500
H115        H  0.28444422  0.51102909  0.35774715     0.14500
H116        H  0.22739972  0.51435044  0.35862798     0.14500
H117        H  0.35682806  0.46743721  0.21990979     0.12800
H118        H  0.35847525  0.46485821  0.27773159     0.12800
H119        H  0.14644802  0.47143231  0.22515310     0.12800
H120        H  0.14813870  0.46779035  0.28291740     0.12800
H121        H  0.25125207  0.47997266  0.22629744     0.26000
H122        H  0.25293165  0.47744387  0.27727265     0.26000
N123        N  0.25165276  0.29737993  0.49529765    -0.36700
N124        N  0.29732222  0.25498394  0.49503037    -0.57300
N125        N  0.25416952  0.20855641  0.49207434    -0.36700
N126        N  0.20785992  0.25168918  0.49497097    -0.57300
C127        C  0.27464613  0.31423836  0.50220628     0.26900
C128        C  0.22761797  0.31257161  0.50243087     0.26900
C129        C  0.27825859  0.19400645  0.50107440     0.26900
C130        C  0.23092016  0.19218674  0.49980913     0.26900
C131        C  0.31253097  0.27914732  0.48779188     0.35500
C132        C  0.31387405  0.23185670  0.48749411     0.35500
C133        C  0.19118361  0.27528487  0.48877872     0.35500
C134        C  0.19226060  0.22776182  0.48771862     0.35500
C135        C  0.26515368  0.34020031  0.51458571    -0.22000
C136        C  0.23536033  0.33919307  0.51464259    -0.22000
C137        C  0.27010393  0.16836838  0.51508170    -0.22000
C138        C  0.24031398  0.16712579  0.51408718    -0.22000
C139        C  0.33875572  0.27141741  0.47522757    -0.23100
C140        C  0.33957957  0.24136015  0.47495269    -0.23100
C141        C  0.16474243  0.26638628  0.47766512    -0.23100
C142        C  0.16545889  0.23624934  0.47686117    -0.23100
C143        C  0.30355268  0.30787395  0.49441729    -0.18400
C144        C  0.19923550  0.30456709  0.49447290    -0.18400
C145        C  0.20161185  0.19857420  0.49273900    -0.18400
C146        C  0.30728068  0.20271578  0.49533980    -0.18400
H147        H  0.27827498  0.35838287  0.52180194     0.14500
H148        H  0.22101456  0.35650930  0.52183843     0.14500
H149        H  0.28408654  0.15211799  0.52498343     0.14500
H150        H  0.22705506  0.14976338  0.52300473     0.14500
H151        H  0.35562974  0.28587413  0.46743447     0.12800
H152        H  0.35730098  0.22803268  0.46698982     0.12800
H153        H  0.14682746  0.28015247  0.47093370     0.12800
H154        H  0.14818575  0.22227174  0.46923252     0.12800
H155        H  0.25213695  0.27875545  0.48226849     0.26000
H156        H  0.25371805  0.22700972  0.47864430     0.26000
C157        C  0.41049511  0.40055169  0.50397039    -0.05400
C158        C  0.41570041  0.37545266  0.02112186    -0.05300
C159        C  0.39534252  0.35300334  0.02287465    -0.23400
C160        C  0.37000566  0.35426383  0.00605129     0.18800
C161        C  0.36496757  0.37840113  0.48873140     0.16000
C162        C  0.38509595  0.40137793  0.48703559    -0.18500
C163        C  0.33995864  0.37855836  0.47131473    -0.20300
C164        C  0.32010150  0.35559718  0.47321219    -0.12900
C165        C  0.32481193  0.33220276  0.49263446     0.03800
C166        C  0.34955708  0.33168661  0.00759526    -0.25000
H167        H  0.43508364  0.37409528  0.03441263     0.08900
H168        H  0.39945079  0.33463120  0.03732914     0.12500
H169        H  0.38126894  0.41961890  0.47230106     0.12400
H170        H  0.33581967  0.39635058  0.45615830     0.12200
H171        H  0.30101243  0.35598196  0.45944479     0.12700
H172        H  0.35306736  0.31331200  0.02223855     0.14700
C173        C  0.40067035  0.09398374  0.49851893    -0.05400
C174        C  0.37466220  0.08503536  0.48517927    -0.05300
C175        C  0.35152884  0.10446682  0.48158748    -0.23400
C176        C  0.35354517  0.13320103  0.49183342     0.18800
C177        C  0.38040700  0.14321675  0.00673838     0.16000
C178        C  0.40410731  0.12374002  0.00918399    -0.18500
C179        C  0.38193842  0.17174246  0.01782717    -0.20300
C180        C  0.35823713  0.19078000  0.01524222    -0.12900
C181        C  0.33180186  0.18142095  0.49940900     0.03800
C182        C  0.33047804  0.15298633  0.48780420    -0.25000
H183        H  0.37238201  0.06300883  0.47685661     0.08900
H184        H  0.33202943  0.09697690  0.47078973     0.12500
H185        H  0.42409649  0.13100036  0.01920801     0.12400
H186        H  0.40135201  0.17925760  0.02875222     0.12200
H187        H  0.35987684  0.21245867  0.02456620     0.12700
H188        H  0.31146881  0.14625524  0.47567587     0.14700
C189        C  0.10107658  0.40631193  0.50681435    -0.05400
C190        C  0.09955194  0.38686231  0.02962842    -0.05300
C191        C  0.11823541  0.36291546  0.03153460    -0.23400
C192        C  0.13828192  0.35747194  0.00916571     0.18800
C193        C  0.14142819  0.37793788  0.48752196     0.16000
C194        C  0.12289007  0.40235672  0.48578073    -0.18500
C195        C  0.16260973  0.37302685  0.46606078    -0.20300
C196        C  0.18069804  0.34853469  0.46790422    -0.12900
C197        C  0.17779000  0.32850768  0.49108744     0.03800
C198        C  0.15660694  0.33294035  0.01057901    -0.25000
H199        H  0.08378537  0.39035361  0.04682764     0.08900
H200        H  0.11667862  0.34840381  0.05026235     0.12500
H201        H  0.12463260  0.41753728  0.46758508     0.12400
H202        H  0.16529032  0.38817900  0.44798358     0.12200
H203        H  0.19735410  0.34536791  0.45148164     0.12700
H204        H  0.15575349  0.31834223  0.02930640     0.14700
C205        C  0.09539464  0.10321440  0.50392631    -0.05400
C206        C  0.08852314  0.12918766  0.01882528    -0.05300
C207        C  0.10796881  0.15259045  0.02013963    -0.23400
C208        C  0.13524871  0.15059735  0.00674339     0.18800
C209        C  0.14191753  0.12529587  0.49047192     0.16000
C210        C  0.12253424  0.10144806  0.48983513    -0.18500
C211        C  0.16833738  0.12425279  0.47528860    -0.20300
C212        C  0.18713128  0.14826075  0.47553767    -0.12900
C213        C  0.18034667  0.17369968  0.49148542     0.03800
C214        C  0.15458426  0.17443255  0.00722172    -0.25000
H215        H  0.06746558  0.13163867  0.02899864     0.09300
H216        H  0.10144584  0.17246181  0.03123161     0.12500
H217        H  0.12819616  0.08190968  0.47770189     0.12400
H218        H  0.17438276  0.10494723  0.46299372     0.12200
H219        H  0.20724695  0.14690160  0.46337960     0.12700
H220        H  0.14874311  0.19411778  0.01901544     0.14700
C221        C  0.32852766  0.48324024  0.32772644    -0.05400
C222        C  0.32617254  0.46042204  0.34827993    -0.05300
C223        C  0.34503456  0.45880973  0.37226181    -0.23400
C224        C  0.36633841  0.48027173  0.37632121     0.18800
C225        C  0.37014077  0.00132717  0.35427237     0.16000
C226        C  0.35169811  0.00197076  0.32982172    -0.18500
C227        C  0.39188390  0.02234555  0.35736197    -0.20300
C228        C  0.40991121  0.02196719  0.38183249    -0.12900
C229        C  0.40621574  0.50116494  0.40438278     0.03800
C230        C  0.38483127  0.47959483  0.40092887    -0.25000
H231        H  0.30930622  0.44416803  0.34600109     0.08900
H232        H  0.34259799  0.44112533  0.38790315     0.12500
H233        H  0.35395812  0.01906250  0.31348228     0.12400
H234        H  0.39506318  0.03901627  0.34076823     0.12200
H235        H  0.42686309  0.03823007  0.38347014     0.12700
H236        H  0.38311470  0.46206226  0.41686291     0.14700
C237        C  0.09586081  0.50626472  0.40053867    -0.05400
C238        C  0.09035685  0.02050493  0.37552581    -0.05300
C239        C  0.10987623  0.02055019  0.35218728    -0.23400
C240        C  0.13560653  0.00435108  0.35393441     0.18800
C241        C  0.14098848  0.48971232  0.37845245     0.16000
C242        C  0.12180584  0.49030313  0.40230205    -0.18500
C243        C  0.16613294  0.47253932  0.37944871    -0.20300
C244        C  0.18507618  0.47204373  0.35562361    -0.12900
C245        C  0.17977672  0.48946988  0.33077989     0.03800
C246        C  0.15522160  0.00417353  0.33045950    -0.25000
H247        H  0.07043075  0.03291724  0.37353787     0.08900
H248        H  0.10469031  0.03299187  0.33265267     0.12500
H249        H  0.12658063  0.47763163  0.42182227     0.12400
H250        H  0.17108877  0.45940109  0.39858523     0.12200
H251        H  0.20430262  0.45846517  0.35678553     0.12700
H252        H  0.15095048  0.01748712  0.31125654     0.14700
C253        C  0.10324111  0.49600068  0.09487095    -0.05400
C254        C  0.12583386  0.47632700  0.08846848    -0.05300
C255        C  0.14879916  0.47226787  0.10799512    -0.23400
C256        C  0.15000290  0.48835768  0.13403307     0.18800
C257        C  0.12769135  0.00781911  0.14099397     0.16000
C258        C  0.10436430  0.01131777  0.12140849    -0.18500
C259        C  0.12867329  0.02363785  0.16722106    -0.20300
C260        C  0.15166329  0.01968959  0.18676117    -0.12900
C261        C  0.17444662  0.50115598  0.17959327     0.03800
C262        C  0.17315254  0.48457941  0.15375283    -0.25000
H263        H  0.12547002  0.46370209  0.06842938     0.08900
H264        H  0.16569101  0.45667372  0.10263737     0.12500
H265        H  0.08683489  0.02626166  0.12658350     0.12400
H266        H  0.11164124  0.03904212  0.17265206     0.12200
H267        H  0.15199065  0.03217945  0.20687013     0.12700
H268        H  0.19003511  0.46870446  0.14917784     0.14700
C269        C  0.32446356  0.49054463  0.17343055    -0.05400
C270        C  0.31815714  0.47283158  0.14914290    -0.05300
C271        C  0.33729236  0.47117434  0.12540416    -0.23400
C272        C  0.36329182  0.48700235  0.12562305     0.18800
C273        C  0.36997582  0.00533186  0.14985834     0.16000
C274        C  0.35018307  0.00748927  0.17317861    -0.18500
C275        C  0.39636671  0.02030099  0.15082481    -0.20300
C276        C  0.41610569  0.01793773  0.12776688    -0.12900
C277        C  0.40911621  0.50103013  0.10271322     0.03800
C278        C  0.38277677  0.48559511  0.10183781    -0.25000
H279        H  0.29826832  0.46032623  0.14856541     0.08900
H280        H  0.33177918  0.45747704  0.10692722     0.12500
H281        H  0.35507242  0.02128962  0.19178435     0.12400
H282        H  0.40182675  0.03376744  0.16949388     0.12200
H283        H  0.43631909  0.02983286  0.12915012     0.12700
H284        H  0.37772611  0.47219351  0.08299081     0.14700
C285        C  0.00657993  0.10008840  0.40609933    -0.05400
C286        C  0.02700159  0.12238116  0.41052856    -0.05300
C287        C  0.02916050  0.14573100  0.39087561    -0.23400
C288        C  0.01033683  0.14759911  0.36690713     0.18800
C289        C  0.48957477  0.12524883  0.36235398     0.16000
C290        C  0.48822516  0.10133727  0.38168282    -0.18500
C291        C  0.47028650  0.12740966  0.33880462    -0.20300
C292        C  0.47135273  0.15150866  0.32003916    -0.12900
C293        C  0.99207452  0.17366163  0.32421329     0.03800
C294        C  0.01161340  0.17155043  0.34761735    -0.25000
H295        H  0.04136810  0.12165415  0.42926322     0.08900
H296        H  0.04516784  0.16257446  0.39472397     0.12500
H297        H  0.47230277  0.08427421  0.37835952     0.12400
H298        H  0.45427342  0.11056476  0.33500162     0.12200
H299        H  0.45625127  0.15279375  0.30194090     0.12700
H300        H  0.02772088  0.18847988  0.35068270     0.14700
C301        C  0.98545079  0.32823112  0.32615773    -0.05400
C302        C  0.46578262  0.35158525  0.32221992    -0.05300
C303        C  0.46645772  0.37596528  0.34060812    -0.23400
C304        C  0.48648182  0.37739060  0.36359322     0.18800
C305        C  0.00584354  0.35367401  0.36830009     0.16000
C306        C  0.00527155  0.32934086  0.34946968    -0.18500
C307        C  0.02546981  0.35484787  0.39165305    -0.20300
C308        C  0.02562942  0.37892543  0.41046368    -0.12900
C309        C  0.00666143  0.40264448  0.40595032     0.03800
C310        C  0.48736819  0.40195297  0.38213387    -0.25000
H311        H  0.45041480  0.35121592  0.30432172     0.08900
H312        H  0.45142048  0.39378603  0.33673116     0.12500
H313        H  0.02065065  0.31162756  0.35244918     0.12400
H314        H  0.04040704  0.33696121  0.39563870     0.12200
H315        H  0.04057894  0.37899819  0.42873388     0.12700
H316        H  0.47244188  0.41998042  0.37871259     0.14700
C317        C  0.00830433  0.40283550  0.09792374    -0.05400
C318        C  0.02638845  0.37850172  0.09336029    -0.05300
C319        C  0.02456107  0.35398017  0.11154379    -0.23400
C320        C  0.00409653  0.35311686  0.13419898     0.18800
C321        C  0.48557167  0.37745405  0.13883488     0.16000
C322        C  0.48819645  0.40238919  0.12101993    -0.18500
C323        C  0.46458891  0.37630281  0.16099269    -0.20300
C324        C  0.46251388  0.35168865  0.17901353    -0.12900
C325        C  0.98169039  0.32798648  0.17541349     0.03800
C326        C  0.00194621  0.32849040  0.15248860    -0.25000
H327        H  0.04168213  0.37832736  0.07539265     0.08900
H328        H  0.03879409  0.33552803  0.10757559     0.12500
H329        H  0.47377929  0.42086829  0.12421816     0.12400
H330        H  0.45009778  0.39460341  0.16467956     0.12200
H331        H  0.44678650  0.35156777  0.19663228     0.12700
H332        H  0.01669668  0.31021723  0.14967647     0.14700
C333        C  0.98409233  0.17466248  0.17604326    -0.05400
C334        C  0.46384624  0.15209970  0.18048705    -0.05300
C335        C  0.46354984  0.12772845  0.16211153    -0.23400
C336        C  0.48358543  0.12550176  0.13913711     0.18800
C337        C  0.00361450  0.14844130  0.13429705     0.16000
C338        C  0.00362820  0.17291468  0.15266782    -0.18500
C339        C  0.02367180  0.14632181  0.11141834    -0.20300
C340        C  0.02366064  0.12193715  0.09324397    -0.12900
C341        C  0.00385607  0.09914553  0.09780574     0.03800
C342        C  0.48404283  0.10078047  0.12094235    -0.25000
H343        H  0.44882060  0.15312064  0.19869132     0.08900
H344        H  0.44802413  0.11044690  0.16615823     0.12500
H345        H  0.01940754  0.19016051  0.14946130     0.12400
H346        H  0.03922376  0.16359682  0.10744959     0.12200
H347        H  0.03907262  0.12088630  0.07537464     0.12700
H348        H  0.46852280  0.08330273  0.12419934     0.14700
N349        N  0.99408150  0.25145877  0.79578810    -0.36700
N350        N  0.99378983  0.20737775  0.75047209    -0.57300
N351        N  0.98955013  0.25152338  0.70537186    -0.36700
N352        N  0.98718536  0.29582828  0.75074150    -0.57300
C353        C  0.98863069  0.22707508  0.81170475     0.26900
C354        C  0.98579634  0.27474933  0.81200231     0.26900
C355        C  0.98232808  0.22737595  0.69008475     0.26900
C356        C  0.98024459  0.27492768  0.68993042     0.26900
C357        C  0.00194432  0.19104597  0.77365806     0.35500
C358        C  0.99928758  0.19113410  0.72652014     0.35500
C359        C  0.99389855  0.31258038  0.77408678     0.35500
C360        C  0.99209516  0.31252166  0.72679586     0.35500
C361        C  0.97695511  0.23496429  0.83854346    -0.22000
C362        C  0.97522969  0.26511624  0.83875609    -0.22000
C363        C  0.96843458  0.23552397  0.66439650    -0.22000
C364        C  0.96723819  0.26567522  0.66423983    -0.22000
C365        C  0.01330370  0.16453610  0.76440408    -0.23100
C366        C  0.01166479  0.16461068  0.73442336    -0.23100
C367        C  0.00331932  0.33986520  0.76492740    -0.23100
C368        C  0.00222714  0.33981379  0.73493145    -0.23100
C369        C  0.99523824  0.19814875  0.80286366    -0.18400
C370        C  0.98912196  0.30435911  0.80352434    -0.18400
C371        C  0.98500371  0.30428474  0.69793377    -0.18400
C372        C  0.98958319  0.19846024  0.69823244    -0.18400
H373        H  0.97051695  0.22053995  0.85619833     0.14500
H374        H  0.96718971  0.27840842  0.85658071     0.14500
H375        H  0.96028897  0.22127693  0.64742818     0.14500
H376        H  0.95796947  0.27922615  0.64717195     0.14500
H377        H  0.02094351  0.14662562  0.77790487     0.12800
H378        H  0.01785084  0.14679008  0.72015411     0.12800
H379        H  0.00999171  0.35801873  0.77846475     0.12800
H380        H  0.00786340  0.35793490  0.72075437     0.12800
H381        H  0.00556840  0.25235394  0.77618830     0.26000
H382        H  0.00291775  0.25222157  0.72368583     0.26000
O383        O  0.00047723  0.08404497  0.54870697    -0.86600
O384        O  0.00758049  0.41877248  0.54876506    -0.86800
O385        O  0.45799652  0.50100469  0.58628699    -0.88400
O386        O  0.05350153  0.50018804  0.58345779    -0.87200
O387        O  0.08719882  0.50045833  0.54633708    -0.86800
O388        O  0.42153241  0.49834922  0.55213268    -0.88100
O389        O  0.00494356  0.45309003  0.58530098    -0.86600
O390        O  0.00215897  0.04943582  0.58522417    -0.86200
Zr391      Zr  0.00471909  0.50111088  0.56134463     2.84300
O392        O  0.03414198  0.47323136  0.53037553    -1.08200
O393        O  0.47267850  0.02951873  0.53205504    -1.08900
C394        C  0.00140678  0.07612140  0.57574529     1.06500
C395        C  0.00658290  0.42648565  0.57586367     1.06500
C396        C  0.43101365  0.49986230  0.57882685     1.09400
C397        C  0.07986749  0.49931208  0.57358554     1.07200
H398        H  0.46391642  0.45830740  0.54466315     0.32800
O399        O  0.47525245  0.47104172  0.53232912    -1.29100
H400        H  0.04369984  0.04432515  0.54275727     0.32400
O401        O  0.03182746  0.03188742  0.53073572    -1.30800
O402        O  0.00678489  0.41798754  0.95530431    -0.86600
O403        O  0.00371500  0.08447679  0.95530337    -0.88100
O404        O  0.42204764  0.45021726  0.00165181    -0.86700
O405        O  0.08689176  0.45598400  0.00051500    -0.86700
O406        O  0.08445401  0.05205287  0.00094322    -0.86400
O407        O  0.41904254  0.04603825  0.00207930    -0.86200
O408        O  0.45437013  0.50142061  0.91943151    -0.86600
O409        O  0.04787950  0.50353452  0.91751398    -0.86100
O410        O  0.41916444  0.49753645  0.95487617    -0.87100
O411        O  0.08434785  0.50325129  0.95168700    -0.86300
O412        O  0.45907450  0.41662252  0.00297714    -0.86700
O413        O  0.45252570  0.08307798  0.00207739    -0.86400
O414        O  0.04751692  0.08564679  0.00380240    -0.86100
O415        O  0.05225283  0.42014249  0.00383761    -0.86500
O416        O  0.00211851  0.45250629  0.91896847    -0.86800
O417        O  0.00136711  0.04987249  0.91901620    -0.88100
Zr418      Zr  0.00491734  0.44291416  0.00204553     2.83100
Zr419      Zr  0.00096999  0.05991917  0.00225392     2.83500
Zr420      Zr  0.44378989  0.49870328  0.00286096     2.84100
Zr421      Zr  0.06155891  0.50332705  0.99994596     2.83400
Zr422      Zr  0.00152622  0.50104221  0.94250542     2.84200
O423        O  0.03065432  0.03191935  0.97156097    -1.08700
O424        O  0.47373082  0.47047466  0.97262768    -1.08200
C425        C  0.00489119  0.42579288  0.92822035     1.06500
C426        C  0.00332140  0.07655306  0.92824318     1.09100
C427        C  0.43200367  0.42380427  0.00232786     1.06700
C428        C  0.07869697  0.42903315  0.00291275     1.07000
C429        C  0.07469616  0.07856993  0.00295223     1.06600
C430        C  0.42613322  0.07336503  0.00156016     1.06200
C431        C  0.42778118  0.49967300  0.92790300     1.06600
C432        C  0.07479953  0.50371886  0.92509232     1.06100
H433        H  0.45954922  0.04193822  0.96092147     0.32800
O434        O  0.47199446  0.02992230  0.97293483    -1.29800
H435        H  0.04497338  0.46069740  0.95896885     0.32800
O436        O  0.03277483  0.47262573  0.97124331    -1.31200
N437        N  0.25083921  0.49347975  0.70833621    -0.36700
N438        N  0.29745067  0.49213245  0.75152523    -0.57300
N439        N  0.25390750  0.48713079  0.79708914    -0.36700
N440        N  0.20781028  0.49169452  0.75440826    -0.57300
C441        C  0.27396879  0.50175901  0.69212876     0.26900
C442        C  0.22671213  0.50203545  0.69371448     0.26900
C443        C  0.27800909  0.49260747  0.81290439     0.26900
C444        C  0.23089482  0.49362925  0.81426827     0.26900
C445        C  0.31293288  0.48741213  0.72680467     0.35500
C446        C  0.31449263  0.48380153  0.77419775     0.35500
C447        C  0.19090564  0.48657357  0.73088575     0.35500
C448        C  0.19248682  0.48319025  0.77813572     0.35500
C449        C  0.26446138  0.51603003  0.66706510    -0.22000
C450        C  0.23462931  0.51628015  0.66810583    -0.22000
C451        C  0.27030999  0.50306447  0.84029240    -0.22000
C452        C  0.24056756  0.50404400  0.84104144    -0.22000
C453        C  0.34002016  0.47624462  0.73389835    -0.23100
C454        C  0.34104755  0.47412942  0.76393917    -0.23100
C455        C  0.16477541  0.47449125  0.73962595    -0.23100
C456        C  0.16581169  0.47225340  0.76963644    -0.23100
C457        C  0.30317442  0.49422741  0.69812436    -0.18400
C458        C  0.19789619  0.49543152  0.70210573    -0.18400
C459        C  0.20164963  0.48754396  0.80730600    -0.18400
C460        C  0.30659933  0.48605643  0.80403723    -0.18400
H461        H  0.27766654  0.52494213  0.64961262     0.14500
H462        H  0.22042109  0.52546464  0.65162625     0.14500
H463        H  0.28463530  0.50901978  0.85803558     0.14500
H464        H  0.22759842  0.51096370  0.85952668     0.14500
H465        H  0.35724800  0.47008265  0.71905749     0.12800
H466        H  0.35916140  0.46618633  0.77673706     0.12800
H467        H  0.14675867  0.46829007  0.72584989     0.12800
H468        H  0.14875724  0.46388540  0.78358217     0.12800
H469        H  0.25149247  0.47954086  0.72637429     0.26000
H470        H  0.25325411  0.47587197  0.77733443     0.26000
N471        N  0.25128813  0.29759386  0.99186183    -0.36700
N472        N  0.29752172  0.25547586  0.99375340    -0.57300
N473        N  0.25498398  0.20866079  0.99243851    -0.36700
N474        N  0.20811713  0.25140177  0.99326761    -0.57300
C475        C  0.27412174  0.31475882  0.99857411     0.26900
C476        C  0.22709960  0.31269742  0.99875139     0.26900
C477        C  0.27917177  0.19464603  0.00207376     0.26900
C478        C  0.23182051  0.19229086  0.00047287     0.26900
C479        C  0.31242613  0.27953290  0.98561579     0.35500
C480        C  0.31452426  0.23231583  0.98739588     0.35500
C481        C  0.19103987  0.27458337  0.98659058     0.35500
C482        C  0.19278253  0.22704750  0.98691616     0.35500
C483        C  0.26436737  0.34085811  0.01045273    -0.22000
C484        C  0.23459335  0.33961335  0.01044049    -0.22000
C485        C  0.27115597  0.16937810  0.01680506    -0.22000
C486        C  0.24138312  0.16779132  0.01560768    -0.22000
C487        C  0.33885989  0.27168362  0.97356062    -0.23100
C488        C  0.34016686  0.24166973  0.97461373    -0.23100
C489        C  0.16461728  0.26501557  0.97604292    -0.23100
C490        C  0.16578381  0.23488247  0.97601736    -0.23100
C491        C  0.30318337  0.30834853  0.99139710    -0.18400
C492        C  0.19870403  0.30411535  0.99145401    -0.18400
C493        C  0.20245508  0.19813376  0.99299582    -0.18400
C494        C  0.30818685  0.20339524  0.99620351    -0.18400
H495        H  0.27730583  0.35921179  0.01756481     0.14500
H496        H  0.22009413  0.35687180  0.01745702     0.14500
H497        H  0.28523427  0.15358014  0.02728857     0.14500
H498        H  0.22824756  0.15056186  0.02495949     0.14500
H499        H  0.35558363  0.28605746  0.96528881     0.12800
H500        H  0.35813732  0.22831527  0.96729281     0.12800
H501        H  0.14642616  0.27833973  0.96917772     0.12800
H502        H  0.14861426  0.22049462  0.96894054     0.12800
H503        H  0.25201542  0.27860164  0.97937340     0.26000
H504        H  0.25443252  0.22666060  0.97841227     0.26000
C505        C  0.41077951  0.39982072  0.00303131    -0.05400
C506        C  0.41545749  0.37675654  0.52279830    -0.05300
C507        C  0.39524750  0.35421174  0.52512680    -0.23400
C508        C  0.36998511  0.35475572  0.50815920     0.18800
C509        C  0.36513115  0.37842362  0.98724780     0.16000
C510        C  0.38540815  0.40124688  0.98611664    -0.18500
C511        C  0.34008451  0.37928076  0.96991305    -0.20300
C512        C  0.32003988  0.35646592  0.97125867    -0.12900
C513        C  0.32457419  0.33257936  0.99011514     0.03800
C514        C  0.34977189  0.33195180  0.51015452    -0.25000
H515        H  0.43480761  0.37590600  0.53617784     0.08900
H516        H  0.39944610  0.33628744  0.54010728     0.12500
H517        H  0.38167469  0.41989544  0.97187643     0.12400
H518        H  0.33607032  0.39750009  0.95523764     0.12200
H519        H  0.30094371  0.35736402  0.95752386     0.12700
H520        H  0.35342668  0.31393218  0.52519682     0.14700
C521        C  0.40172698  0.09468375  0.99924985    -0.05400
C522        C  0.37534897  0.08560038  0.98678569    -0.05300
C523        C  0.35219151  0.10502038  0.98347451    -0.23400
C524        C  0.35452065  0.13391570  0.99314053     0.18800
C525        C  0.37903971  0.14224939  0.50634413     0.16000
C526        C  0.40266956  0.12278684  0.50912530    -0.18500
C527        C  0.38033189  0.17055436  0.51794749    -0.20300
C528        C  0.35679491  0.18967500  0.51500384    -0.12900
C529        C  0.33284620  0.18222043  0.00043998     0.03800
C530        C  0.33133010  0.15358909  0.98939851    -0.25000
H531        H  0.37273977  0.06343153  0.97896021     0.08900
H532        H  0.33238567  0.09737097  0.97338283     0.12500
H533        H  0.42234790  0.12987840  0.51987289     0.12400
H534        H  0.39944212  0.17783759  0.52955150     0.12200
H535        H  0.35822102  0.21117224  0.52477207     0.12700
H536        H  0.31206801  0.14661555  0.97783429     0.14700
C537        C  0.10087614  0.40606660  0.00565935    -0.05400
C538        C  0.09866258  0.38648079  0.53017742    -0.05300
C539        C  0.11730306  0.36254783  0.53240683    -0.23400
C540        C  0.13845023  0.35777824  0.51096037     0.18800
C541        C  0.14004914  0.37692510  0.98501700     0.16000
C542        C  0.12147644  0.40135119  0.98355262    -0.18500
C543        C  0.16014075  0.37136536  0.96265556    -0.20300
C544        C  0.17841403  0.34698563  0.96433784    -0.12900
C545        C  0.17674957  0.32766043  0.98823092     0.03800
C546        C  0.15663021  0.33317960  0.51256283    -0.25000
H547        H  0.08208262  0.38948131  0.54663761     0.08900
H548        H  0.11484005  0.34750945  0.55061275     0.12500
H549        H  0.12228100  0.41598964  0.96484933     0.12400
H550        H  0.16189583  0.38598287  0.94402837     0.12200
H551        H  0.19430301  0.34340907  0.94723993     0.12700
H552        H  0.15479143  0.31798717  0.53073669     0.14700
C553        C  0.09609146  0.10291446  0.00472888    -0.05400
C554        C  0.08842639  0.12884903  0.51940285    -0.05300
C555        C  0.10788431  0.15222594  0.52083441    -0.23400
C556        C  0.13457707  0.15085300  0.50622031     0.18800
C557        C  0.14315692  0.12442518  0.99235508     0.16000
C558        C  0.12381610  0.10055231  0.99195738    -0.18500
C559        C  0.17003686  0.12283722  0.97808460    -0.20300
C560        C  0.18869266  0.14694924  0.97778395    -0.12900
C561        C  0.18141418  0.17299451  0.99249116     0.03800
C562        C  0.15392623  0.17466816  0.50695007    -0.25000
H563        H  0.06784317  0.13078788  0.53059323     0.09300
H564        H  0.10184561  0.17157918  0.53305923     0.12500
H565        H  0.12996106  0.08053906  0.98088219     0.12400
H566        H  0.17648784  0.10306422  0.96677972     0.12200
H567        H  0.20907573  0.14520348  0.96614373     0.12700
H568        H  0.14850488  0.19390707  0.51965021     0.14700
C569        C  0.32890808  0.48244711  0.82734826    -0.05400
C570        C  0.32598394  0.46026362  0.84852965    -0.05300
C571        C  0.34443539  0.45915363  0.87283029    -0.23400
C572        C  0.36604196  0.48035920  0.87645875     0.18800
C573        C  0.36926342  0.00324963  0.85524682     0.16000
C574        C  0.35055997  0.00453219  0.83100932    -0.18500
C575        C  0.39154549  0.02369958  0.85822880    -0.20300
C576        C  0.40996195  0.02258843  0.88237901    -0.12900
C577        C  0.40611308  0.50118558  0.90419289     0.03800
C578        C  0.38413334  0.48017395  0.90134019    -0.25000
H579        H  0.30883117  0.44426915  0.84659977     0.08900
H580        H  0.34144439  0.44207573  0.88903921     0.12500
H581        H  0.35307638  0.02165701  0.81474395     0.12400
H582        H  0.39485213  0.04049175  0.84178547     0.12200
H583        H  0.42727712  0.03846432  0.88394567     0.12700
H584        H  0.38176247  0.46329663  0.91788622     0.14700
C585        C  0.09612348  0.50426578  0.90111147    -0.05400
C586        C  0.08895855  0.02136827  0.87461786    -0.05300
C587        C  0.10813257  0.02131271  0.85098446    -0.23400
C588        C  0.13402251  0.00536119  0.85258425     0.18800
C589        C  0.14121709  0.48724053  0.87927707     0.16000
C590        C  0.12201460  0.48820146  0.90312320    -0.18500
C591        C  0.16634109  0.47002110  0.88043506    -0.20300
C592        C  0.18527684  0.46922863  0.85657626    -0.12900
C593        C  0.17997267  0.48638387  0.83153033     0.03800
C594        C  0.15354241  0.00537757  0.82905234    -0.25000
H595        H  0.06889025  0.03357006  0.87278099     0.08900
H596        H  0.10260250  0.03352472  0.83139814     0.12500
H597        H  0.12672198  0.47576424  0.92281237     0.12400
H598        H  0.17129930  0.45710675  0.89972398     0.12200
H599        H  0.20451368  0.45567945  0.85788128     0.12700
H600        H  0.14911591  0.01868025  0.80987520     0.14700
C601        C  0.10392497  0.49582076  0.59474521    -0.05400
C602        C  0.12738648  0.47742466  0.58771764    -0.05300
C603        C  0.15030749  0.47343290  0.60730688    -0.23400
C604        C  0.15054271  0.48825647  0.63411217     0.18800
C605        C  0.12742680  0.00851055  0.64048231     0.16000
C606        C  0.10387134  0.01168595  0.62117294    -0.18500
C607        C  0.12870841  0.02484171  0.66634914    -0.20300
C608        C  0.15200425  0.02141776  0.68556260    -0.12900
C609        C  0.17385689  0.49962717  0.68064564     0.03800
C610        C  0.17351309  0.48433647  0.65399049    -0.25000
H611        H  0.12773484  0.46567962  0.56714804     0.08900
H612        H  0.16787151  0.45880342  0.60144902     0.12500
H613        H  0.08642304  0.02674380  0.62630320     0.12400
H614        H  0.11167260  0.04025178  0.67175206     0.12200
H615        H  0.15250887  0.03422919  0.70546245     0.12700
H616        H  0.19105545  0.46938560  0.64886106     0.14700
C617        C  0.32396364  0.49263263  0.67302425    -0.05400
C618        C  0.31775325  0.47479497  0.64879999    -0.05300
C619        C  0.33713920  0.47271004  0.62529206    -0.23400
C620        C  0.36332485  0.48822220  0.62565269     0.18800
C621        C  0.37017208  0.00482059  0.65051814     0.16000
C622        C  0.35063236  0.00708497  0.67402159    -0.18500
C623        C  0.39668923  0.01952517  0.65135171    -0.20300
C624        C  0.41603416  0.01742500  0.62795943    -0.12900
C625        C  0.40962456  0.50139110  0.60312414     0.03800
C626        C  0.38311692  0.48624447  0.60215016    -0.25000
H627        H  0.29785002  0.46231626  0.64819346     0.08900
H628        H  0.33172920  0.45881368  0.60693366     0.12500
H629        H  0.35586652  0.02071494  0.69265718     0.12400
H630        H  0.40251047  0.03267968  0.67013276     0.12200
H631        H  0.43632789  0.02918934  0.62925512     0.12700
H632        H  0.37811701  0.47269938  0.58339313     0.14700
C633        C  0.00600274  0.10026401  0.90648964    -0.05400
C634        C  0.02618678  0.12270497  0.91123837    -0.05300
C635        C  0.02851488  0.14605701  0.89164804    -0.23400
C636        C  0.01012565  0.14779907  0.86735358     0.18800
C637        C  0.48961594  0.12542477  0.86242768     0.16000
C638        C  0.48798760  0.10151367  0.88179035    -0.18500
C639        C  0.47076760  0.12758676  0.83848663    -0.20300
C640        C  0.47234858  0.15159273  0.81958376    -0.12900
C641        C  0.99281097  0.17370228  0.82419008     0.03800
C642        C  0.01177578  0.17168890  0.84804459    -0.25000
H643        H  0.04032010  0.12205841  0.93015518     0.08900
H644        H  0.04438638  0.16297003  0.89575063     0.12500
H645        H  0.47215490  0.08441546  0.87823296     0.12400
H646        H  0.45476447  0.11078934  0.83444089     0.12200
H647        H  0.45764620  0.15287067  0.80115173     0.12700
H648        H  0.02779925  0.18864148  0.85141388     0.14700
C649        C  0.98701504  0.32800281  0.82586472    -0.05400
C650        C  0.46636206  0.35049990  0.82248214    -0.05300
C651        C  0.46610336  0.37447659  0.84140350    -0.23400
C652        C  0.48627908  0.37631819  0.86423472     0.18800
C653        C  0.00667877  0.35338518  0.86831347     0.16000
C654        C  0.00689005  0.32940220  0.84907626    -0.18500
C655        C  0.02647504  0.35492491  0.89149181    -0.20300
C656        C  0.02601159  0.37875422  0.91059609    -0.12900
C657        C  0.00620807  0.40183550  0.90654759     0.03800
C658        C  0.48646000  0.40061969  0.88311111    -0.25000
H659        H  0.45090113  0.34977299  0.80467850     0.08900
H660        H  0.45028708  0.39169806  0.83801653     0.12500
H661        H  0.02287492  0.31217988  0.85167761     0.12400
H662        H  0.04211998  0.33756906  0.89503155     0.12200
H663        H  0.04123494  0.37921534  0.92862652     0.12700
H664        H  0.47083387  0.41811432  0.88013813     0.14700
C665        C  0.00687075  0.40245436  0.59729421    -0.05400
C666        C  0.02615191  0.37900793  0.59338662    -0.05300
C667        C  0.02505186  0.35460260  0.61169948    -0.23400
C668        C  0.00421510  0.35300775  0.63392455     0.18800
C669        C  0.48444258  0.37648753  0.63794535     0.16000
C670        C  0.48619534  0.40130926  0.61984275    -0.18500
C671        C  0.46342201  0.37468540  0.66004699    -0.20300
C672        C  0.46264952  0.35041557  0.67866418    -0.12900
C673        C  0.98287665  0.32756076  0.67539216     0.03800
C674        C  0.00319005  0.32866671  0.65260806    -0.25000
H675        H  0.04196460  0.37951048  0.57592420     0.08900
H676        H  0.04032310  0.33689268  0.60831592     0.12500
H677        H  0.47097043  0.41919318  0.62259717     0.12400
H678        H  0.44801198  0.39228662  0.66332565     0.12200
H679        H  0.44694282  0.34980439  0.69629118     0.12700
H680        H  0.01888343  0.31113844  0.65025138     0.14700
C681        C  0.98622466  0.17449422  0.67683039    -0.05400
C682        C  0.46718191  0.15129730  0.68271880    -0.05300
C683        C  0.46631178  0.12699149  0.66430089    -0.23400
C684        C  0.48455977  0.12559005  0.63980061     0.18800
C685        C  0.00329331  0.14928643  0.63349703     0.16000
C686        C  0.00389066  0.17362228  0.65197192    -0.18500
C687        C  0.02153941  0.14809798  0.60909733    -0.20300
C688        C  0.02111219  0.12378192  0.59090123    -0.12900
C689        C  0.00267907  0.10013902  0.59688122     0.03800
C690        C  0.48455764  0.10092938  0.62152362    -0.25000
H691        H  0.45353212  0.15175345  0.70202148     0.08900
H692        H  0.45176473  0.10914491  0.66946640     0.12500
H693        H  0.01871117  0.19148334  0.64761659     0.12400
H694        H  0.03605938  0.16599619  0.60402061     0.12200
H695        H  0.03522582  0.12340082  0.57196355     0.12700
H696        H  0.47006212  0.08281732  0.62594301     0.14700
N697        N  0.99521575  0.75148137  0.29587730    -0.36700
N698        N  0.99444453  0.70740758  0.25037784    -0.57300
N699        N  0.98988047  0.75158252  0.20548299    -0.36700
N700        N  0.98793131  0.79586769  0.25099629    -0.57300
C701        C  0.98999872  0.72703344  0.31175589     0.26900
C702        C  0.98694495  0.77469067  0.31222810     0.26900
C703        C  0.98247514  0.72751735  0.19014311     0.26900
C704        C  0.98070589  0.77509196  0.19014068     0.26900
C705        C  0.00302548  0.69113302  0.27344848     0.35500
C706        C  0.99967245  0.69118099  0.22633992     0.35500
C707        C  0.99472825  0.81257979  0.27435171     0.35500
C708        C  0.99295556  0.81253970  0.22706178     0.35500
C709        C  0.97850522  0.73479455  0.33871912    -0.22000
C710        C  0.97664220  0.76493772  0.33903947    -0.22000
C711        C  0.96853373  0.73583211  0.16453452    -0.22000
C712        C  0.96754528  0.76599941  0.16446808    -0.22000
C713        C  0.01436674  0.66467360  0.26402579    -0.23100
C714        C  0.01227859  0.66472031  0.23406819    -0.23100
C715        C  0.00426877  0.83982234  0.26522499    -0.23100
C716        C  0.00323883  0.83977073  0.23522929    -0.23100
C717        C  0.99662966  0.69816404  0.30275124    -0.18400
C718        C  0.99003675  0.80433307  0.30378586    -0.18400
C719        C  0.98580573  0.80438235  0.19818186    -0.18400
C720        C  0.98971224  0.69854603  0.19813861    -0.18400
H721        H  0.97226379  0.72029345  0.35638350     0.14500
H722        H  0.96868662  0.77814209  0.35696775     0.14500
H723        H  0.96027774  0.72168950  0.14753324     0.14500
H724        H  0.95835058  0.77966625  0.14745114     0.14500
H725        H  0.02228950  0.64680941  0.27742087     0.12800
H726        H  0.01837974  0.64694300  0.21970876     0.12800
H727        H  0.01103445  0.85792277  0.27878725     0.12800
H728        H  0.00901026  0.85786255  0.22107224     0.12800
H729        H  0.00651770  0.75244684  0.27617082     0.26000
H730        H  0.00334977  0.75218148  0.22372229     0.26000
O731        O  0.00066546  0.58388796  0.04853941    -0.86600
O732        O  0.00812490  0.91846084  0.04865533    -0.86800
O733        O  0.45808640  0.00073464  0.08613831    -0.88400
O734        O  0.05353909  0.00025256  0.08350802    -0.87200
O735        O  0.08726119  0.00055517  0.04640678    -0.86800
O736        O  0.42162729  0.99817390  0.05196672    -0.88100
O737        O  0.00549691  0.95283901  0.08512758    -0.86600
O738        O  0.00230286  0.54937031  0.08514591    -0.86200
Zr739      Zr  0.00481943  0.00097108  0.06129396     2.84300
O740        O  0.03425338  0.97312933  0.03035227    -1.08200
O741        O  0.47270536  0.52926327  0.03201353    -1.08900
C742        C  0.00159829  0.57604580  0.07560799     1.06500
C743        C  0.00726322  0.92621664  0.07573284     1.06500
C744        C  0.43110943  0.99961860  0.07865392     1.09400
C745        C  0.07990817  0.99943482  0.07365388     1.07200
H746        H  0.46405264  0.95814722  0.04465874     0.32800
O747        O  0.47535550  0.97089066  0.03230374    -1.29100
H748        H  0.04369293  0.54417531  0.04260039     0.32400
O749        O  0.03180073  0.53169725  0.03064029    -1.30800
O750        O  0.00693264  0.91846353  0.45512567    -0.86600
O751        O  0.00376754  0.58482187  0.45557291    -0.88100
O752        O  0.42203833  0.95040488  0.50172650    -0.86700
O753        O  0.08688169  0.95611768  0.50066520    -0.86700
O754        O  0.08446048  0.55203567  0.50092629    -0.86400
O755        O  0.41885775  0.54605605  0.50225828    -0.86200
O756        O  0.45459560  0.00157335  0.41938864    -0.86600
O757        O  0.04817128  0.00409600  0.41757933    -0.86100
O758        O  0.41931204  0.99749812  0.45473640    -0.87100
O759        O  0.08456032  0.00354944  0.45182513    -0.86300
O760        O  0.45909974  0.91684700  0.50282975    -0.86700
O761        O  0.45233264  0.58310498  0.50219584    -0.86400
O762        O  0.04755399  0.58565563  0.50394236    -0.86100
O763        O  0.05219322  0.92032775  0.50397799    -0.86500
O764        O  0.00244402  0.95306175  0.41883142    -0.86800
O765        O  0.00144572  0.55027825  0.41922087    -0.88100
Zr766      Zr  0.00493887  0.94316997  0.50201051     2.83100
Zr767      Zr  0.00088778  0.56008031  0.50238574     2.83500
Zr768      Zr  0.44374386  0.99896801  0.50286630     2.84100
Zr769      Zr  0.06161335  0.00353714  0.50001001     2.83400
Zr770      Zr  0.00173829  0.00148709  0.44253910     2.84200
O771        O  0.03056751  0.53211185  0.47163463    -1.08700
O772        O  0.47381124  0.97087649  0.47263166    -1.08200
C773        C  0.00518080  0.92633572  0.42804456     1.06500
C774        C  0.00344736  0.57693680  0.42850594     1.09100
C775        C  0.43201980  0.92398700  0.50228628     1.06700
C776        C  0.07864765  0.92917584  0.50311130     1.07000
C777        C  0.07472966  0.57854928  0.50300636     1.06600
C778        C  0.42594110  0.57337291  0.50170885     1.06200
C779        C  0.42799834  0.99961695  0.42777410     1.06600
C780        C  0.07508961  0.00418402  0.42520688     1.06100
H781        H  0.45943321  0.54213906  0.46104999     0.32800
O782        O  0.47189127  0.53011391  0.47304015    -1.29800
H783        H  0.04508655  0.96101061  0.45898137     0.32800
O784        O  0.03286066  0.97291178  0.47125699    -1.31200
N785        N  0.25101651  0.99281993  0.20821271    -0.36700
N786        N  0.29772754  0.99084562  0.25128173    -0.57300
N787        N  0.25428008  0.98652926  0.29696655    -0.36700
N788        N  0.20807514  0.99171796  0.25439801    -0.57300
C789        C  0.27419961  0.00069916  0.19187232     0.26900
C790        C  0.22694195  0.00148677  0.19355311     0.26900
C791        C  0.27850181  0.99197329  0.31262256     0.26900
C792        C  0.23140756  0.99363151  0.31410754     0.26900
C793        C  0.31316209  0.98612991  0.22653844     0.35500
C794        C  0.31480806  0.98254140  0.27393055     0.35500
C795        C  0.19098817  0.98683964  0.23095128     0.35500
C796        C  0.19269842  0.98356048  0.27821876     0.35500
C797        C  0.26476736  0.01480828  0.16668317    -0.22000
C798        C  0.23495095  0.01535074  0.16776869    -0.22000
C799        C  0.27101998  0.00301464  0.33983549    -0.22000
C800        C  0.24129443  0.00437681  0.34066027    -0.22000
C801        C  0.34026525  0.97495791  0.23359239    -0.23100
C802        C  0.34134261  0.97284596  0.26363609    -0.23100
C803        C  0.16467923  0.97526645  0.23983541    -0.23100
C804        C  0.16580282  0.97307407  0.26985077    -0.23100
C805        C  0.30338229  0.99303294  0.19788293    -0.18400
C806        C  0.19805184  0.99537992  0.20208564    -0.18400
C807        C  0.20205116  0.98787973  0.30734208    -0.18400
C808        C  0.30700516  0.98501817  0.30377080    -0.18400
H809        H  0.27800540  0.02343618  0.14911360     0.14500
H810        H  0.22080877  0.02450769  0.15121638     0.14500
H811        H  0.28548096  0.00915577  0.35740040     0.14500
H812        H  0.22845807  0.01181168  0.35903887     0.14500
H813        H  0.35748814  0.96883935  0.21872612     0.12800
H814        H  0.35950002  0.96496854  0.27641259     0.12800
H815        H  0.14650227  0.96934653  0.22614862     0.12800
H816        H  0.14865930  0.96504076  0.28388139     0.12800
H817        H  0.25156071  0.97909843  0.22641549     0.26000
H818        H  0.25341000  0.97497717  0.27738546     0.26000
N819        N  0.25125071  0.79757017  0.49281565    -0.36700
N820        N  0.29747204  0.75551434  0.49365762    -0.57300
N821        N  0.25494247  0.70865207  0.49211509    -0.36700
N822        N  0.20807728  0.75137210  0.49399798    -0.57300
C823        C  0.27413054  0.81467806  0.49953088     0.26900
C824        C  0.22710268  0.81258079  0.50003611     0.26900
C825        C  0.27920941  0.69462293  0.50150626     0.26900
C826        C  0.23186233  0.69223213  0.50027600     0.26900
C827        C  0.31229063  0.77966549  0.48564600     0.35500
C828        C  0.31435362  0.73242746  0.48675416     0.35500
C829        C  0.19095997  0.77462046  0.48766549     0.35500
C830        C  0.19271836  0.72708841  0.48743710     0.35500
C831        C  0.26444175  0.84062445  0.51179804    -0.22000
C832        C  0.23466296  0.83936520  0.51197406    -0.22000
C833        C  0.27132246  0.66930397  0.51623243    -0.22000
C834        C  0.24154674  0.66768147  0.51523796    -0.22000
C835        C  0.33853941  0.77195046  0.47309684    -0.23100
C836        C  0.33982378  0.74192053  0.47372740    -0.23100
C837        C  0.16448428  0.76515936  0.47715313    -0.23100
C838        C  0.16565636  0.73503117  0.47678769    -0.23100
C839        C  0.30313253  0.80840382  0.49194463    -0.18400
C840        C  0.19867847  0.80410882  0.49271742    -0.18400
C841        C  0.20244838  0.69811554  0.49309492    -0.18400
C842        C  0.30815969  0.70344352  0.49543637    -0.18400
H843        H  0.27741617  0.85891486  0.51900407     0.14500
H844        H  0.22019594  0.85654324  0.51925079     0.14500
H845        H  0.28547689  0.65350389  0.52660510     0.14500
H846        H  0.22848698  0.65041988  0.52464020     0.14500
H847        H  0.35516444  0.78641360  0.46477942     0.12800
H848        H  0.35768535  0.72863895  0.46601166     0.12800
H849        H  0.14625680  0.77854872  0.47051953     0.12800
H850        H  0.14845916  0.72071492  0.46963401     0.12800
H851        H  0.25187814  0.77874639  0.48006954     0.26000
H852        H  0.25426318  0.72672985  0.47818974     0.26000
C853        C  0.41085325  0.89991554  0.50295944    -0.05400
C854        C  0.41496391  0.87728931  0.02387487    -0.05300
C855        C  0.39467939  0.85482850  0.02642684    -0.23400
C856        C  0.36982421  0.85482968  0.00884753     0.18800
C857        C  0.36492105  0.87867808  0.48776155     0.16000
C858        C  0.38509489  0.90160474  0.48667046    -0.18500
C859        C  0.33947393  0.87983387  0.47105268    -0.20300
C860        C  0.31950550  0.85694985  0.47239342    -0.12900
C861        C  0.32449445  0.83268679  0.49064737     0.03800
C862        C  0.34960983  0.83202428  0.01098839    -0.25000
H863        H  0.43400139  0.87685408  0.03772112     0.08900
H864        H  0.39852046  0.83737168  0.04204408     0.12500
H865        H  0.38096585  0.92054826  0.47294284     0.12400
H866        H  0.33507779  0.89835155  0.45687221     0.12200
H867        H  0.30009721  0.85810206  0.45913119     0.12700
H868        H  0.35294531  0.81442424  0.02659273     0.14700
C869        C  0.40152226  0.59464950  0.49935112    -0.05400
C870        C  0.37505620  0.58543570  0.48716604    -0.05300
C871        C  0.35194886  0.60487025  0.48363751    -0.23400
C872        C  0.35442352  0.63391000  0.49281366     0.18800
C873        C  0.37870697  0.64159330  0.00746765     0.16000
C874        C  0.40238001  0.62217178  0.01012562    -0.18500
C875        C  0.37970560  0.66962478  0.01975157    -0.20300
C876        C  0.35618248  0.68876073  0.01677524    -0.12900
C877        C  0.33290331  0.68235523  0.49954676     0.03800
C878        C  0.33130001  0.65360401  0.48883282    -0.25000
H879        H  0.37234585  0.56315991  0.47968661     0.08900
H880        H  0.33207842  0.59712642  0.47374873     0.12500
H881        H  0.42186843  0.62906502  0.02134761     0.12400
H882        H  0.39859824  0.67670210  0.03183818     0.12200
H883        H  0.35739515  0.71008403  0.02694907     0.12700
H884        H  0.31198766  0.64652149  0.47742208     0.14700
C885        C  0.10075863  0.90614902  0.50603173    -0.05400
C886        C  0.09884409  0.88631903  0.03033499    -0.05300
C887        C  0.11746505  0.86235595  0.03252574    -0.23400
C888        C  0.13872374  0.85769408  0.01116428     0.18800
C889        C  0.14019834  0.87705291  0.48584220     0.16000
C890        C  0.12168950  0.90152465  0.48422640    -0.18500
C891        C  0.16065574  0.87162030  0.46379536    -0.20300
C892        C  0.17889334  0.84722898  0.46564263    -0.12900
C893        C  0.17683464  0.82775225  0.48938230     0.03800
C894        C  0.15681522  0.83300700  0.01264060    -0.25000
H895        H  0.08218193  0.88922990  0.04671348     0.08900
H896        H  0.11487738  0.84719440  0.05061146     0.12500
H897        H  0.12281796  0.91627919  0.46563280     0.12400
H898        H  0.16272854  0.88635038  0.44529153     0.12200
H899        H  0.19505326  0.84374853  0.44878524     0.12700
H900        H  0.15483603  0.81766651  0.03067378     0.14700
C901        C  0.09616067  0.60284927  0.50478785    -0.05400
C902        C  0.08785260  0.62904820  0.01820966    -0.05300
C903        C  0.10723056  0.65249586  0.01946075    -0.23400
C904        C  0.13410288  0.65092344  0.00521136     0.18800
C905        C  0.14314332  0.62442833  0.49220769     0.16000
C906        C  0.12377834  0.60057444  0.49175545    -0.18500
C907        C  0.16992069  0.62295661  0.47772117    -0.20300
C908        C  0.18859547  0.64705926  0.47751833    -0.12900
C909        C  0.18142372  0.67297364  0.49250986     0.03800
C910        C  0.15345867  0.67472999  0.00590374    -0.25000
H911        H  0.06713956  0.63113133  0.02913651     0.09300
H912        H  0.10100902  0.67203850  0.03128562     0.12500
H913        H  0.12981410  0.58065398  0.48045401     0.12400
H914        H  0.17627708  0.60328588  0.46618590     0.12200
H915        H  0.20889976  0.64541304  0.46572324     0.12700
H916        H  0.14791367  0.69408442  0.01837031     0.14700
C917        C  0.32934573  0.98147554  0.32707525    -0.05400
C918        C  0.32630960  0.95952464  0.34848463    -0.05300
C919        C  0.34476805  0.95855288  0.37279309    -0.23400
C920        C  0.36645295  0.97971139  0.37624148     0.18800
C921        C  0.36911575  0.50298378  0.35534518     0.16000
C922        C  0.35035681  0.50419933  0.33114914    -0.18500
C923        C  0.39033470  0.52443780  0.35912509    -0.20300
C924        C  0.40876446  0.52341334  0.38327866    -0.12900
C925        C  0.40642430  0.00082463  0.40393756     0.03800
C926        C  0.38447694  0.97975474  0.40118475    -0.25000
H927        H  0.30906345  0.94361258  0.34672570     0.08900
H928        H  0.34168745  0.94165450  0.38917241     0.12500
H929        H  0.35205652  0.52195996  0.31546884     0.12400
H930        H  0.39277861  0.54197499  0.34331885     0.12200
H931        H  0.42525785  0.54008210  0.38548762     0.12700
H932        H  0.38204054  0.96304366  0.41788890     0.14700
C933        C  0.09652437  0.00485570  0.40128650    -0.05400
C934        C  0.08947501  0.52204309  0.37488307    -0.05300
C935        C  0.10889876  0.52233373  0.35144028    -0.23400
C936        C  0.13472519  0.50625923  0.35300109     0.18800
C937        C  0.14177698  0.98803048  0.37955248     0.16000
C938        C  0.12246888  0.98886105  0.40333541    -0.18500
C939        C  0.16691372  0.97082357  0.38071713    -0.20300
C940        C  0.18583011  0.96997399  0.35683448    -0.12900
C941        C  0.18050475  0.98705042  0.33173250     0.03800
C942        C  0.15439427  0.50645658  0.32957269    -0.25000
H943        H  0.06947999  0.53436929  0.37307130     0.08900
H944        H  0.10359727  0.53489536  0.33201125     0.12500
H945        H  0.12712539  0.97634836  0.42298844     0.12400
H946        H  0.17185640  0.95789525  0.40000081     0.12200
H947        H  0.20502285  0.95635944  0.35812713     0.12700
H948        H  0.15011453  0.51995377  0.31049804     0.14700
C949        C  0.10393987  0.99593968  0.09482964    -0.05400
C950        C  0.12704763  0.97700807  0.08807147    -0.05300
C951        C  0.14991623  0.97290333  0.10769435    -0.23400
C952        C  0.15046271  0.98814252  0.13425841     0.18800
C953        C  0.12767160  0.50866873  0.14041230     0.16000
C954        C  0.10419855  0.51205173  0.12100489    -0.18500
C955        C  0.12928615  0.52534348  0.16604976    -0.20300
C956        C  0.15249408  0.52169214  0.18535555    -0.12900
C957        C  0.17403817  0.99973006  0.18060940     0.03800
C958        C  0.17336844  0.98406429  0.15418229    -0.25000
H959        H  0.12713656  0.96492095  0.06769912     0.08900
H960        H  0.16719067  0.95784277  0.10205775     0.12500
H961        H  0.08704310  0.52752718  0.12589157     0.12400
H962        H  0.11258536  0.54120838  0.17119555     0.12200
H963        H  0.15327260  0.53480093  0.20504990     0.12700
H964        H  0.19061222  0.96869417  0.14926579     0.14700
C965        C  0.32418678  0.99158543  0.17279824    -0.05400
C966        C  0.31795168  0.97397626  0.14841360    -0.05300
C967        C  0.33724792  0.97222301  0.12481401    -0.23400
C968        C  0.36340628  0.98776810  0.12528879     0.18800
C969        C  0.36995892  0.50455643  0.15017823     0.16000
C970        C  0.35042287  0.50645954  0.17371125    -0.18500
C971        C  0.39610196  0.51995079  0.15083617    -0.20300
C972        C  0.41553290  0.51800530  0.12749614    -0.12900
C973        C  0.40971324  0.00105656  0.10291232     0.03800
C974        C  0.38316631  0.98600930  0.10176098    -0.25000
H975        H  0.29807117  0.96146591  0.14772723     0.08900
H976        H  0.33180905  0.95852749  0.10631294     0.12500
H977        H  0.35534241  0.52031673  0.19226772     0.12400
H978        H  0.40159449  0.53345653  0.16946764     0.12200
H979        H  0.43557516  0.53021519  0.12865394     0.12700
H980        H  0.37813899  0.97265526  0.08287301     0.14700
C981        C  0.00632677  0.60064188  0.40679166    -0.05400
C982        C  0.02665330  0.62294759  0.41156791    -0.05300
C983        C  0.02932730  0.64614821  0.39183782    -0.23400
C984        C  0.01113020  0.64787872  0.36739119     0.18800
C985        C  0.49039414  0.62570850  0.36254768     0.16000
C986        C  0.48838812  0.60195562  0.38204844    -0.18500
C987        C  0.47165282  0.62794096  0.33853498    -0.20300
C988        C  0.47358039  0.65179616  0.31949354    -0.12900
C989        C  0.99423291  0.67365974  0.32399406     0.03800
C990        C  0.01311263  0.67160961  0.34791987    -0.25000
H991        H  0.04066519  0.62227860  0.43057644     0.08900
H992        H  0.04532218  0.66294369  0.39593663     0.12500
H993        H  0.47238345  0.58501599  0.37851315     0.12400
H994        H  0.45543108  0.61133983  0.33456774     0.12200
H995        H  0.45888417  0.65318583  0.30106396     0.12700
H996        H  0.02924386  0.68846003  0.35127986     0.14700
C997        C  0.98779309  0.82799420  0.32611082    -0.05400
C998        C  0.46712954  0.85026330  0.32270968    -0.05300
C999        C  0.46667812  0.87430976  0.34154553    -0.23400
C1000       C  0.48697196  0.87651452  0.36423500     0.18800
C1001       C  0.00753655  0.85387276  0.36823432     0.16000
C1002       C  0.00786574  0.82977796  0.34912278    -0.18500
C1003       C  0.02756659  0.85582417  0.39117543    -0.20300
C1004       C  0.02693404  0.87970794  0.41020763    -0.12900
C1005       C  0.00671049  0.90243611  0.40632991     0.03800
C1006       C  0.48690523  0.90086063  0.38306975    -0.25000
H1007       H  0.45157009  0.84927150  0.30500850     0.08900
H1008       H  0.45061037  0.89130133  0.33820433     0.12500
H1009       H  0.02410064  0.81278510  0.35164702     0.12400
H1010       H  0.04351531  0.83873128  0.39460490     0.12200
H1011       H  0.04232777  0.88047165  0.42807846     0.12700
H1012       H  0.47098323  0.91809727  0.38018899     0.14700
C1013       C  0.00774979  0.90222152  0.09720784    -0.05400
C1014       C  0.02675472  0.87856839  0.09308498    -0.05300
C1015       C  0.02572626  0.85424329  0.11152726    -0.23400
C1016       C  0.00516276  0.85290474  0.13403367     0.18800
C1017       C  0.48561641  0.87646731  0.13811231     0.16000
C1018       C  0.48733062  0.90122247  0.11994173    -0.18500
C1019       C  0.46469228  0.87481839  0.16030486    -0.20300
C1020       C  0.46383755  0.85057221  0.17892361    -0.12900
C1021       C  0.98387605  0.82770213  0.17568268     0.03800
C1022       C  0.00407122  0.82860088  0.15277043    -0.25000
H1023       H  0.04226542  0.87883098  0.07535408     0.08900
H1024       H  0.04077893  0.83637384  0.10798310     0.12500
H1025       H  0.47219203  0.91916850  0.12277021     0.12400
H1026       H  0.44938027  0.89250000  0.16361465     0.12200
H1027       H  0.44816447  0.85005300  0.19658363     0.12700
H1028       H  0.01956411  0.81090739  0.15029991     0.14700
C1029       C  0.98627482  0.67461065  0.17665897    -0.05400
C1030       C  0.46751380  0.65118385  0.18271084    -0.05300
C1031       C  0.46670220  0.62684589  0.16431880    -0.23400
C1032       C  0.48478805  0.62554353  0.13968751     0.18800
C1033       C  0.00324537  0.64944749  0.13320671     0.16000
C1034       C  0.00375777  0.67384047  0.15164550    -0.18500
C1035       C  0.02136597  0.64832704  0.10869848    -0.20300
C1036       C  0.02104996  0.62394119  0.09056784    -0.12900
C1037       C  0.00284178  0.60014963  0.09670419     0.03800
C1038       C  0.48487919  0.60082518  0.12146647    -0.25000
H1039       H  0.45402182  0.65152664  0.20212850     0.08900
H1040       H  0.45234637  0.60888186  0.16962361     0.12500
H1041       H  0.01842095  0.69180217  0.14716660     0.12400
H1042       H  0.03571143  0.66633110  0.10349050     0.12200
H1043       H  0.03507105  0.62363068  0.07155370     0.12700
H1044       H  0.47056300  0.58260521  0.12603492     0.14700
N1045       N  0.99147856  0.75134348  0.79607011    -0.36700
N1046       N  0.99086911  0.70727060  0.75036830    -0.57300
N1047       N  0.98667989  0.75180727  0.70547877    -0.36700
N1048       N  0.98385640  0.79603843  0.75120182    -0.57300
C1049       C  0.98679518  0.72685139  0.81206273     0.26900
C1050       C  0.98347936  0.77452825  0.81261222     0.26900
C1051       C  0.98013876  0.72779646  0.68963212     0.26900
C1052       C  0.97836491  0.77543816  0.68977047     0.26900
C1053       C  0.99911402  0.69079241  0.77345461     0.35500
C1054       C  0.99573340  0.69091695  0.72630441     0.35500
C1055       C  0.99100232  0.81248184  0.77467580     0.35500
C1056       C  0.98949426  0.81269810  0.72736013     0.35500
C1057       C  0.97592205  0.73456657  0.83930595    -0.22000
C1058       C  0.97385621  0.76470150  0.83966018    -0.22000
C1059       C  0.96774598  0.73627337  0.66327288    -0.22000
C1060       C  0.96670276  0.76644628  0.66332717    -0.22000
C1061       C  0.00977312  0.66405168  0.76397948    -0.23100
C1062       C  0.00755038  0.66409995  0.73405859    -0.23100
C1063       C  0.00129953  0.83948651  0.76569598    -0.23100
C1064       C  0.00038632  0.83961325  0.73574062    -0.23100
C1065       C  0.99328137  0.69796940  0.80289927    -0.18400
C1066       C  0.98639772  0.80421378  0.80415239    -0.18400
C1067       C  0.98300220  0.80475324  0.69822194    -0.18400
C1068       C  0.98673315  0.69869864  0.69785077    -0.18400
H1069       H  0.97020650  0.72003983  0.85713189     0.14500
H1070       H  0.96626784  0.77784440  0.85779368     0.14500
H1071       H  0.96055807  0.72222504  0.64570245     0.14500
H1072       H  0.95851491  0.78017786  0.64584556     0.14500
H1073       H  0.01741379  0.64601689  0.77731335     0.12800
H1074       H  0.01326271  0.64617745  0.71971800     0.12800
H1075       H  0.00873489  0.85726377  0.77932339     0.12800
H1076       H  0.00696188  0.85753486  0.72173229     0.12800
H1077       H  0.00231166  0.75237703  0.77611357     0.26000
H1078       H  0.99907702  0.75230005  0.72445655     0.26000
O1079       O  0.00147444  0.58375317  0.54955058    -0.86600
O1080       O  0.00830204  0.91918554  0.54934562    -0.86800
O1081       O  0.45743323  0.00089943  0.58593847    -0.88400
O1082       O  0.05287535  0.00087924  0.58351604    -0.87200
O1083       O  0.08664945  0.00063186  0.54646982    -0.86800
O1084       O  0.42095173  0.99812687  0.55182157    -0.88100
O1085       O  0.00550635  0.95374093  0.58562721    -0.86600
O1086       O  0.00303116  0.54875585  0.58571915    -0.86200
Zr1087     Zr  0.00420411  0.00154031  0.56124462     2.84300
O1088       O  0.03380752  0.97351454  0.53061051    -1.08200
O1089       O  0.47319009  0.52947034  0.53244519    -1.08900
C1090       C  0.00236496  0.57552561  0.57651677     1.06500
C1091       C  0.00749546  0.92707367  0.57641635     1.06500
C1092       C  0.43045447  0.99963807  0.57851130     1.09400
C1093       C  0.07923549  0.99968955  0.57368081     1.07200
H1094       H  0.46367087  0.95826821  0.54486466     0.32800
O1095       O  0.47491655  0.97102513  0.53246715    -1.29100
H1096       H  0.04432643  0.54384380  0.54303168     0.32400
O1097       O  0.03237127  0.53154883  0.53094469    -1.30800
O1098       O  0.00718753  0.91831936  0.95495569    -0.86600
O1099       O  0.00348267  0.58406746  0.95461766    -0.88100
O1100       O  0.42193020  0.95085723  0.00189393    -0.86700
O1101       O  0.08750107  0.95612450  0.00091826    -0.86700
O1102       O  0.08365788  0.55221638  0.00012788    -0.86400
O1103       O  0.41817362  0.54520419  0.00181932    -0.86200
O1104       O  0.45463452  0.00134632  0.91953353    -0.86600
O1105       O  0.04763708  0.00492755  0.91719452    -0.86100
O1106       O  0.41946036  0.99777250  0.95502341    -0.87100
O1107       O  0.08426848  0.00410928  0.95118178    -0.86300
O1108       O  0.45889247  0.91715351  0.00302795    -0.86700
O1109       O  0.45149936  0.58240798  0.00153090    -0.86400
O1110       O  0.04661177  0.58571801  0.00287791    -0.86100
O1111       O  0.05270448  0.92046587  0.00456366    -0.86500
O1112       O  0.00284319  0.95303542  0.91877826    -0.86800
O1113       O  0.00185267  0.54921110  0.91853177    -0.88100
Zr1114     Zr  0.00515164  0.94298844  0.00175122     2.83100
Zr1115     Zr  0.00021888  0.55978113  0.00169745     2.83500
Zr1116     Zr  0.44417326  0.99913600  0.00298757     2.84100
Zr1117     Zr  0.06207558  0.00333118  0.99987548     2.83400
Zr1118     Zr  0.00177980  0.00148452  0.94263616     2.84200
O1119       O  0.03015106  0.53167457  0.97136773    -1.08700
O1120       O  0.47396183  0.97086315  0.97260593    -1.08200
C1121       C  0.00548745  0.92625038  0.92790335     1.06500
C1122       C  0.00364238  0.57594842  0.92761326     1.09100
C1123       C  0.43179985  0.92441379  0.00266833     1.06700
C1124       C  0.07921544  0.92925506  0.00376631     1.07000
C1125       C  0.07379907  0.57871781  0.00187984     1.06600
C1126       C  0.42515155  0.57253032  0.00115105     1.06200
C1127       C  0.42804516  0.99967871  0.92802066     1.06600
C1128       C  0.07456113  0.00509870  0.92462623     1.06100
H1129       H  0.45903993  0.54142431  0.96053244     0.32800
O1130       O  0.47148747  0.52946773  0.97259699    -1.29800
H1131       H  0.04535337  0.96095228  0.95872137     0.32800
O1132       O  0.03314841  0.97279760  0.97106904    -1.31200
N1133       N  0.25097910  0.99454862  0.70806075    -0.36700
N1134       N  0.29723714  0.99340264  0.75190817    -0.57300
N1135       N  0.25322078  0.98972792  0.79684734    -0.36700
N1136       N  0.20753298  0.99404851  0.75351621    -0.57300
C1137       C  0.27443081  0.00235939  0.69214724     0.26900
C1138       C  0.22718718  0.00333697  0.69302039     0.26900
C1139       C  0.27713000  0.99508316  0.81301776     0.26900
C1140       C  0.23000251  0.99639537  0.81364270     0.26900
C1141       C  0.31274307  0.98767299  0.72742170     0.35500
C1142       C  0.31391479  0.98519890  0.77491098     0.35500
C1143       C  0.19086111  0.98872907  0.72987330     0.35500
C1144       C  0.19195527  0.98573704  0.77712569     0.35500
C1145       C  0.26547788  0.01664026  0.66686358    -0.22000
C1146       C  0.23562889  0.01728151  0.66743291    -0.22000
C1147       C  0.26909498  0.00568758  0.84024656    -0.22000
C1148       C  0.23934458  0.00684747  0.84053130    -0.22000
C1149       C  0.33948678  0.97597603  0.73498839    -0.23100
C1150       C  0.34028268  0.97460444  0.76508733    -0.23100
C1151       C  0.16460378  0.97681311  0.73840962    -0.23100
C1152       C  0.16534561  0.97477913  0.76842788    -0.23100
C1153       C  0.30336977  0.99416141  0.69852522    -0.18400
C1154       C  0.19822004  0.99717888  0.70110137    -0.18400
C1155       C  0.20086137  0.99017559  0.80634957    -0.18400
C1156       C  0.30578027  0.98816092  0.80463100    -0.18400
H1157       H  0.27905712  0.02522535  0.64953998     0.14500
H1158       H  0.22175400  0.02648554  0.65067458     0.14500
H1159       H  0.28318826  0.01153174  0.85821535     0.14500
H1160       H  0.22613501  0.01381386  0.85882670     0.14500
H1161       H  0.35663494  0.96899335  0.72042025     0.12800
H1162       H  0.35808243  0.96646564  0.77821011     0.12800
H1163       H  0.14673393  0.97051804  0.72448051     0.12800
H1164       H  0.14814879  0.96649013  0.78223723     0.12800
H1165       H  0.25121938  0.98068614  0.72617316     0.26000
H1166       H  0.25273463  0.97832490  0.77717518     0.26000
N1167       N  0.25186252  0.79704003  0.99541707    -0.36700
N1168       N  0.29739815  0.75452094  0.99559778    -0.57300
N1169       N  0.25407238  0.70818858  0.99219348    -0.36700
N1170       N  0.20788136  0.75145942  0.99473702    -0.57300
C1171       C  0.27487672  0.81386647  0.00235657     0.26900
C1172       C  0.22784252  0.81230161  0.00247815     0.26900
C1173       C  0.27801301  0.69351897  0.00141454     0.26900
C1174       C  0.23068265  0.69182080  0.99951004     0.26900
C1175       C  0.31282855  0.77860047  0.98854016     0.35500
C1176       C  0.31401718  0.73130332  0.98850379     0.35500
C1177       C  0.19131076  0.77515309  0.98861045     0.35500
C1178       C  0.19224237  0.72762170  0.98726119     0.35500
C1179       C  0.26541994  0.83988137  0.01463252    -0.22000
C1180       C  0.23563093  0.83892297  0.01466614    -0.22000
C1181       C  0.26962465  0.66778347  0.01508952    -0.22000
C1182       C  0.23985140  0.66663060  0.01371981    -0.22000
C1183       C  0.33927953  0.77072274  0.97657118    -0.23100
C1184       C  0.34001364  0.74066497  0.97647465    -0.23100
C1185       C  0.16489760  0.76640763  0.97730958    -0.23100
C1186       C  0.16552958  0.73627510  0.97630091    -0.23100
C1187       C  0.30381299  0.80739887  0.99479046    -0.18400
C1188       C  0.19943482  0.80438831  0.99448308    -0.18400
C1189       C  0.20144825  0.69836103  0.99220317    -0.18400
C1190       C  0.30714453  0.70218924  0.99620447    -0.18400
H1191       H  0.27857280  0.85804265  0.02184411     0.14500
H1192       H  0.22131744  0.85628126  0.02182441     0.14500
H1193       H  0.28344744  0.65141716  0.02503130     0.14500
H1194       H  0.22645748  0.64924307  0.02237466     0.14500
H1195       H  0.35635862  0.78508288  0.96906328     0.12800
H1196       H  0.35784722  0.72724466  0.96893251     0.12800
H1197       H  0.14706340  0.78027350  0.97056330     0.12800
H1198       H  0.14825245  0.72241286  0.96847387     0.12800
H1199       H  0.25234790  0.77838154  0.98243889     0.26000
H1200       H  0.25383609  0.72674945  0.97891332     0.26000
C1201       C  0.41047363  0.90048869  0.00420710    -0.05400
C1202       C  0.41627746  0.87512813  0.52033574    -0.05300
C1203       C  0.39604368  0.85255748  0.52204416    -0.23400
C1204       C  0.37029676  0.85412028  0.50589455     0.18800
C1205       C  0.36524561  0.87790243  0.98863122     0.16000
C1206       C  0.38543276  0.90082957  0.98670906    -0.18500
C1207       C  0.34062171  0.87752986  0.97066066    -0.20300
C1208       C  0.32074871  0.85458817  0.97274514    -0.12900
C1209       C  0.32507183  0.83172399  0.99287598     0.03800
C1210       C  0.34991336  0.83147378  0.50747129    -0.25000
H1211       H  0.43597255  0.87351611  0.53312165     0.08900
H1212       H  0.40055796  0.83386700  0.53595636     0.12500
H1213       H  0.38194470  0.91863661  0.97136936     0.12400
H1214       H  0.33680386  0.89488433  0.95492104     0.12200
H1215       H  0.30196455  0.85455651  0.95855287     0.12700
H1216       H  0.35380525  0.81280992  0.52164162     0.14700
C1217       C  0.40065822  0.59364383  0.99876597    -0.05400
C1218       C  0.37490048  0.58490103  0.98482780    -0.05300
C1219       C  0.35173670  0.60430933  0.98136629    -0.23400
C1220       C  0.35347730  0.63279098  0.99233877     0.18800
C1221       C  0.38037691  0.64332934  0.50619534     0.16000
C1222       C  0.40401657  0.62382670  0.50886297    -0.18500
C1223       C  0.38204619  0.67200678  0.51684319    -0.20300
C1224       C  0.35838287  0.69105625  0.51410864    -0.12900
C1225       C  0.33150907  0.68078473  0.00053341     0.03800
C1226       C  0.33041871  0.65258657  0.98836475    -0.25000
H1227       H  0.37286282  0.56307229  0.97593618     0.08900
H1228       H  0.33243984  0.59700841  0.97007890     0.12500
H1229       H  0.42406636  0.63118302  0.51869121     0.12400
H1230       H  0.40151950  0.67961791  0.52759133     0.12200
H1231       H  0.36009982  0.71282590  0.52320056     0.12700
H1232       H  0.31163321  0.64608297  0.97576365     0.14700
C1233       C  0.10137181  0.90629025  0.00710124    -0.05400
C1234       C  0.09901864  0.88677552  0.52984104    -0.05300
C1235       C  0.11760564  0.86276508  0.53188636    -0.23400
C1236       C  0.13801225  0.85743883  0.50982789     0.18800
C1237       C  0.14188114  0.87804150  0.98791481     0.16000
C1238       C  0.12336767  0.90249240  0.98622747    -0.18500
C1239       C  0.16317534  0.87325534  0.96654019    -0.20300
C1240       C  0.18114997  0.84866694  0.96823857    -0.12900
C1241       C  0.17804958  0.82842313  0.99120904     0.03800
C1242       C  0.15630124  0.83288163  0.51140207    -0.25000
H1243       H  0.08300195  0.89019167  0.54681173     0.08900
H1244       H  0.11571435  0.84813213  0.55048750     0.12500
H1245       H  0.12524226  0.91779608  0.96815014     0.12400
H1246       H  0.16600845  0.88856192  0.94861851     0.12200
H1247       H  0.19787740  0.84559398  0.95187223     0.12700
H1248       H  0.15510807  0.81814911  0.53000411     0.14700
C1249       C  0.09507861  0.60315550  0.00328157    -0.05400
C1250       C  0.08872823  0.62899189  0.51918216    -0.05300
C1251       C  0.10819683  0.65236454  0.52053656    -0.23400
C1252       C  0.13536274  0.65047064  0.50689816     0.18800
C1253       C  0.14164986  0.62514819  0.98992562     0.16000
C1254       C  0.12234693  0.60123784  0.98948443    -0.18500
C1255       C  0.16820689  0.62393820  0.97501321    -0.20300
C1256       C  0.18697434  0.64796614  0.97514076    -0.12900
C1257       C  0.18006921  0.67357100  0.99078089     0.03800
C1258       C  0.15470853  0.67428537  0.50744920    -0.25000
H1259       H  0.06776172  0.63135625  0.52956836     0.09300
H1260       H  0.10178103  0.67213774  0.53186362     0.12500
H1261       H  0.12818678  0.58151535  0.97773973     0.12400
H1262       H  0.17439373  0.60447441  0.96304203     0.12200
H1263       H  0.20720956  0.64645503  0.96320705     0.12700
H1264       H  0.14896457  0.69386078  0.51947116     0.14700
C1265       C  0.32781554  0.98447781  0.82824196    -0.05400
C1266       C  0.32448588  0.96246809  0.84954853    -0.05300
C1267       C  0.34316120  0.96089383  0.87367175    -0.23400
C1268       C  0.36540140  0.98148002  0.87703364     0.18800
C1269       C  0.36963476  0.50220427  0.85470168     0.16000
C1270       C  0.35115637  0.50302746  0.83028836    -0.18500
C1271       C  0.39136344  0.52321885  0.85793562    -0.20300
C1272       C  0.40950918  0.52257029  0.88231315    -0.12900
C1273       C  0.40633721  0.00129204  0.90430637     0.03800
C1274       C  0.38383630  0.98078823  0.90168494    -0.25000
H1275       H  0.30696484  0.94686826  0.84776457     0.08900
H1276       H  0.33990709  0.94389929  0.88991521     0.12500
H1277       H  0.35334036  0.52027892  0.81410724     0.12400
H1278       H  0.39447284  0.54005954  0.84150116     0.12200
H1279       H  0.42648418  0.53879805  0.88404985     0.12700
H1280       H  0.38123532  0.96398322  0.91826796     0.14700
C1281       C  0.09566157  0.00604523  0.90046774    -0.05400
C1282       C  0.08983960  0.51977477  0.87529611    -0.05300
C1283       C  0.10924923  0.51967581  0.85187764    -0.23400
C1284       C  0.13498626  0.50349574  0.85363054     0.18800
C1285       C  0.14056901  0.98923087  0.87823099     0.16000
C1286       C  0.12164632  0.99018349  0.90225427    -0.18500
C1287       C  0.16574001  0.97211350  0.87925914    -0.20300
C1288       C  0.18452867  0.97141186  0.85532850    -0.12900
C1289       C  0.17907135  0.98864296  0.83038517     0.03800
C1290       C  0.15460541  0.50336057  0.83017809    -0.25000
H1291       H  0.06991633  0.53219713  0.87333354     0.08900
H1292       H  0.10400360  0.53203617  0.83230741     0.12500
H1293       H  0.12663217  0.97783025  0.92192443     0.12400
H1294       H  0.17087942  0.95925079  0.89853307     0.12200
H1295       H  0.20385367  0.95798304  0.85655402     0.12700
H1296       H  0.15032653  0.51667542  0.81097639     0.14700
C1297       C  0.10321594  0.99602245  0.59481152    -0.05400
C1298       C  0.12618334  0.97689641  0.58808760    -0.05300
C1299       C  0.14926469  0.97304311  0.60750714    -0.23400
C1300       C  0.15017700  0.98878745  0.63376598     0.18800
C1301       C  0.12738928  0.50736900  0.64113554     0.16000
C1302       C  0.10403152  0.51074338  0.62158161    -0.18500
C1303       C  0.12803147  0.52279244  0.66760294    -0.20300
C1304       C  0.15108492  0.51902827  0.68708521    -0.12900
C1305       C  0.17437342  0.00144565  0.67947440     0.03800
C1306       C  0.17342794  0.98523285  0.65339192    -0.25000
H1307       H  0.12605479  0.96457062  0.56785840     0.08900
H1308       H  0.16647110  0.95789545  0.60189247     0.12500
H1309       H  0.08623088  0.52527528  0.62698006     0.12400
H1310       H  0.11069208  0.53776007  0.67325870     0.12200
H1311       H  0.15114783  0.53121943  0.70738133     0.12700
H1312       H  0.19063119  0.96978403  0.64857903     0.14700
C1313       C  0.32428193  0.99183470  0.67361990    -0.05400
C1314       C  0.31760358  0.97444409  0.64918368    -0.05300
C1315       C  0.33673117  0.97248018  0.62544817    -0.23400
C1316       C  0.36311057  0.98765695  0.62580120     0.18800
C1317       C  0.36985190  0.50604330  0.65004684     0.16000
C1318       C  0.35000736  0.50846643  0.67330912    -0.18500
C1319       C  0.39623730  0.52103410  0.65088170    -0.20300
C1320       C  0.41598039  0.51850147  0.62783582    -0.12900
C1321       C  0.40920030  0.00095932  0.60293571     0.03800
C1322       C  0.38254873  0.98606174  0.60196358    -0.25000
H1323       H  0.29743528  0.96240916  0.64848781     0.08900
H1324       H  0.33090358  0.95906765  0.60686085     0.12500
H1325       H  0.35489090  0.52242417  0.69179778     0.12400
H1326       H  0.40166884  0.53469399  0.66941794     0.12200
H1327       H  0.43616101  0.53046611  0.62910130     0.12700
H1328       H  0.37717054  0.97300733  0.58296683     0.14700
C1329       C  0.00652983  0.59949745  0.90573304    -0.05400
C1330       C  0.02666427  0.62201317  0.91037920    -0.05300
C1331       C  0.02861864  0.64551849  0.89089140    -0.23400
C1332       C  0.00988467  0.64731110  0.86684785     0.18800
C1333       C  0.48961628  0.62475858  0.86208402     0.16000
C1334       C  0.48842278  0.60070737  0.88125779    -0.18500
C1335       C  0.47039948  0.62688615  0.83847131    -0.20300
C1336       C  0.47127782  0.65113617  0.81988917    -0.12900
C1337       C  0.99149468  0.67344568  0.82424023     0.03800
C1338       C  0.01090189  0.67144928  0.84776790    -0.25000
H1339       H  0.04091848  0.62138148  0.92920423     0.08900
H1340       H  0.04436955  0.66255681  0.89495042     0.12500
H1341       H  0.47266271  0.58352419  0.87777298     0.12400
H1342       H  0.45459266  0.60989033  0.83446948     0.12200
H1343       H  0.45626236  0.65236778  0.80171455     0.12700
H1344       H  0.02675221  0.68858223  0.85105675     0.14700
C1345       C  0.98476923  0.82797293  0.82652893    -0.05400
C1346       C  0.46579079  0.85162900  0.82230499    -0.05300
C1347       C  0.46669232  0.87605894  0.84060010    -0.23400
C1348       C  0.48648217  0.87719989  0.86380047     0.18800
C1349       C  0.00509169  0.85310532  0.86886754     0.16000
C1350       C  0.00427614  0.82873242  0.85011735    -0.18500
C1351       C  0.02444760  0.85395712  0.89245782    -0.20300
C1352       C  0.02493213  0.87814056  0.91111032    -0.12900
C1353       C  0.00655999  0.90226376  0.90621065     0.03800
C1354       C  0.48766627  0.90184737  0.88218314    -0.25000
H1355       H  0.45065921  0.85149295  0.80419783     0.08900
H1356       H  0.45204783  0.89415238  0.83645949     0.12500
H1357       H  0.01929443  0.81074572  0.85332967     0.12400
H1358       H  0.03892382  0.83575423  0.89673850     0.12200
H1359       H  0.03965003  0.87796770  0.92957234     0.12700
H1360       H  0.47315262  0.92015974  0.87847397     0.14700
C1361       C  0.00802985  0.90318188  0.59811396    -0.05400
C1362       C  0.02614769  0.87887936  0.59358269    -0.05300
C1363       C  0.02445892  0.85443228  0.61186693    -0.23400
C1364       C  0.00409400  0.85359700  0.63460630     0.18800
C1365       C  0.48578996  0.87794998  0.63937054     0.16000
C1366       C  0.48823837  0.90284426  0.62144823    -0.18500
C1367       C  0.46499468  0.87680605  0.66171611    -0.20300
C1368       C  0.46301787  0.85215503  0.67971544    -0.12900
C1369       C  0.98183016  0.82841695  0.67586912     0.03800
C1370       C  0.00202000  0.82896781  0.65289546    -0.25000
H1371       H  0.04136702  0.87866698  0.57555856     0.08900
H1372       H  0.03870938  0.83599573  0.60789377     0.12500
H1373       H  0.47384536  0.92132839  0.62472601     0.12400
H1374       H  0.45054176  0.89511228  0.66552686     0.12200
H1375       H  0.44739641  0.85201405  0.69743085     0.12700
H1376       H  0.01674992  0.81069126  0.65000155     0.14700
C1377       C  0.98391691  0.67493161  0.67607810    -0.05400
C1378       C  0.46331123  0.65284893  0.68014664    -0.05300
C1379       C  0.46276163  0.62855004  0.66166811    -0.23400
C1380       C  0.48319230  0.62588063  0.63908977     0.18800
C1381       C  0.00371103  0.64834614  0.63470250     0.16000
C1382       C  0.00388582  0.67277554  0.65312458    -0.18500
C1383       C  0.02417923  0.64583879  0.61223928    -0.20300
C1384       C  0.02397192  0.62154382  0.59395037    -0.12900
C1385       C  0.00356630  0.59921576  0.59800100     0.03800
C1386       C  0.48336255  0.60125485  0.62075115    -0.25000
H1387       H  0.44794910  0.65421777  0.69803883     0.08900
H1388       H  0.44671321  0.61167322  0.66531808     0.12500
H1389       H  0.02008794  0.68967921  0.65027669     0.12400
H1390       H  0.04020512  0.66275394  0.60867449     0.12200
H1391       H  0.03971773  0.62019236  0.57639985     0.12700
H1392       H  0.46731695  0.58419147  0.62356758     0.14700
N1393       N  0.49192001  0.25149459  0.29582692    -0.36700
N1394       N  0.49103626  0.20720937  0.25024462    -0.57300
N1395       N  0.48647386  0.25155350  0.20527802    -0.36700
N1396       N  0.48391570  0.29599572  0.25088590    -0.57300
C1397       C  0.48748413  0.22705791  0.31197572     0.26900
C1398       C  0.48422216  0.27474815  0.31242453     0.26900
C1399       C  0.47986293  0.22748429  0.18955872     0.26900
C1400       C  0.47795375  0.27510578  0.18958131     0.26900
C1401       C  0.49941512  0.19083434  0.27335407     0.35500
C1402       C  0.49587376  0.19079585  0.22621227     0.35500
C1403       C  0.49120498  0.31256971  0.27423120     0.35500
C1404       C  0.48938016  0.31253597  0.22691590     0.35500
C1405       C  0.47710731  0.23488271  0.33938685    -0.22000
C1406       C  0.47508371  0.26501800  0.33967852    -0.22000
C1407       C  0.46715010  0.23584320  0.16331614    -0.22000
C1408       C  0.46603049  0.26601290  0.16329231    -0.22000
C1409       C  0.51009708  0.16408598  0.26393024    -0.23100
C1410       C  0.50781827  0.16404792  0.23401317    -0.23100
C1411       C  0.50138099  0.33954643  0.26504234    -0.23100
C1412       C  0.50028884  0.33950904  0.23508997    -0.23100
C1413       C  0.49377375  0.19812725  0.30280938    -0.18400
C1414       C  0.48695039  0.30441388  0.30379922    -0.18400
C1415       C  0.48272249  0.30443507  0.19785174    -0.18400
C1416       C  0.48672247  0.19845291  0.19776698    -0.18400
H1417       H  0.47170870  0.22043342  0.35737628     0.14500
H1418       H  0.46784222  0.27822126  0.35791072     0.14500
H1419       H  0.45982441  0.22172323  0.14586203     0.14500
H1420       H  0.45764942  0.27967835  0.14585166     0.14500
H1421       H  0.51783661  0.14612073  0.27730008     0.12800
H1422       H  0.51357030  0.14610642  0.21971260     0.12800
H1423       H  0.50888919  0.35739617  0.27853297     0.12800
H1424       H  0.50676099  0.35736314  0.22094625     0.12800
H1425       H  0.50239088  0.25244180  0.27567566     0.26000
H1426       H  0.49909906  0.25214911  0.22410028     0.26000
O1427       O  0.50179828  0.08360571  0.04936451    -0.86600
O1428       O  0.50853084  0.41885744  0.04924020    -0.86800
O1429       O  0.95742935  0.50095385  0.08588560    -0.88400
O1430       O  0.55293436  0.50089577  0.08352883    -0.87200
O1431       O  0.58665706  0.50051333  0.04642854    -0.86800
O1432       O  0.92100377  0.49799607  0.05171517    -0.88100
O1433       O  0.50567430  0.45342440  0.08551228    -0.86600
O1434       O  0.50327955  0.04869240  0.08561563    -0.86200
Zr1435     Zr  0.50425918  0.50136533  0.06127786     2.84300
O1436       O  0.53379780  0.47331091  0.03059087    -1.08200
O1437       O  0.97331115  0.02928972  0.03233660    -1.08900
C1438       C  0.50271405  0.07544414  0.07634542     1.06500
C1439       C  0.50773193  0.42675125  0.07629210     1.06500
C1440       C  0.93046575  0.49966307  0.07839606     1.09400
C1441       C  0.57928177  0.49968551  0.07366723     1.07200
H1442       H  0.96373412  0.45803720  0.04488722     0.32800
O1443       O  0.97497432  0.47078357  0.03247411    -1.29100
H1444       H  0.54437797  0.04378171  0.04290856     0.32400
O1445       O  0.53242435  0.03145981  0.03084778    -1.30800
O1446       O  0.50703513  0.41858449  0.45483588    -0.86600
O1447       O  0.50356470  0.08464569  0.45499744    -0.88100
O1448       O  0.92190482  0.45093351  0.50199380    -0.86700
O1449       O  0.58726688  0.45620321  0.50072714    -0.86700
O1450       O  0.58385101  0.05229929  0.50040638    -0.86400
O1451       O  0.91814452  0.04542320  0.50156465    -0.86200
O1452       O  0.95459937  0.50157657  0.41943133    -0.86600
O1453       O  0.54762536  0.50509294  0.41712658    -0.86100
O1454       O  0.91950190  0.49770672  0.45498611    -0.87100
O1455       O  0.58419980  0.50415318  0.45117389    -0.86300
O1456       O  0.95887863  0.41724401  0.50273433    -0.86700
O1457       O  0.95148451  0.08261842  0.50141059    -0.86400
O1458       O  0.54687832  0.08587353  0.50338439    -0.86100
O1459       O  0.55245208  0.42057516  0.50446467    -0.86500
O1460       O  0.50260795  0.45334842  0.41870624    -0.86800
O1461       O  0.50183289  0.04983587  0.41887100    -0.88100
Zr1462     Zr  0.50499899  0.44320437  0.50172905     2.83100
Zr1463     Zr  0.50030133  0.06007837  0.50187183     2.83500
Zr1464     Zr  0.94410242  0.49923421  0.50302391     2.84100
Zr1465     Zr  0.56192824  0.50345187  0.49985218     2.83400
Zr1466     Zr  0.50167327  0.50178385  0.44261746     2.84200
O1467       O  0.53027937  0.03206644  0.47147014    -1.08700
O1468       O  0.97390473  0.47108734  0.47255262    -1.08200
C1469       C  0.50529985  0.42655081  0.42778336     1.06500
C1470       C  0.50364574  0.07656458  0.42799141     1.09100
C1471       C  0.93179439  0.42449051  0.50253633     1.06700
C1472       C  0.57895718  0.42934433  0.50357993     1.07000
C1473       C  0.57406738  0.07880840  0.50236753     1.06600
C1474       C  0.92512559  0.07275462  0.50090553     1.06200
C1475       C  0.92803807  0.49968035  0.42796921     1.06600
C1476       C  0.57455827  0.50518237  0.42459442     1.06100
H1477       H  0.95914595  0.04169346  0.46053882     0.32800
O1478       O  0.97157918  0.02975574  0.47263606    -1.29800
H1479       H  0.54516511  0.46115912  0.45866108     0.32800
O1480       O  0.53297706  0.47300660  0.47102494    -1.31200
N1481       N  0.75111939  0.49375419  0.20795814    -0.36700
N1482       N  0.79747999  0.49181596  0.25164978    -0.57300
N1483       N  0.75365855  0.48897007  0.29678964    -0.36700
N1484       N  0.70782964  0.49401322  0.25357865    -0.57300
C1485       C  0.77461000  0.50114793  0.19189210     0.26900
C1486       C  0.72737230  0.50264381  0.19289534     0.26900
C1487       C  0.77773511  0.49405055  0.31281441     0.26900
C1488       C  0.73062511  0.49619362  0.31362430     0.26900
C1489       C  0.81292012  0.48616182  0.22711843     0.35500
C1490       C  0.81421926  0.48357002  0.27457954     0.35500
C1491       C  0.69093828  0.48892601  0.23002960     0.35500
C1492       C  0.69220135  0.48613245  0.27731190     0.35500
C1493       C  0.76571983  0.51523495  0.16647536    -0.22000
C1494       C  0.73588705  0.51618316  0.16711727    -0.22000
C1495       C  0.76999933  0.50498957  0.33999226    -0.22000
C1496       C  0.74026415  0.50667047  0.34039123    -0.22000
C1497       C  0.83968962  0.47444435  0.23457345    -0.23100
C1498       C  0.84055978  0.47297977  0.26466983    -0.23100
C1499       C  0.66448873  0.47759631  0.23875527    -0.23100
C1500       C  0.66533735  0.47567841  0.26878064    -0.23100
C1501       C  0.80352358  0.49284006  0.19828715    -0.18400
C1502       C  0.69834279  0.49698551  0.20114341    -0.18400
C1503       C  0.70133064  0.49050205  0.30649290    -0.18400
C1504       C  0.80626031  0.48675317  0.30430464    -0.18400
H1505       H  0.77932253  0.52350231  0.14901608     0.14500
H1506       H  0.72206475  0.52534614  0.15029273     0.14500
H1507       H  0.78427884  0.51075753  0.35783537     0.14500
H1508       H  0.72723808  0.51401559  0.35867205     0.14500
H1509       H  0.85682790  0.46759547  0.21992591     0.12800
H1510       H  0.85842549  0.46490113  0.27774082     0.12800
H1511       H  0.64643074  0.47159184  0.22494445     0.12800
H1512       H  0.64804398  0.46778820  0.28270006     0.12800
H1513       H  0.75125733  0.48011297  0.22623293     0.26000
H1514       H  0.75288427  0.47745031  0.27719440     0.26000
N1515       N  0.75163550  0.29737859  0.49539695    -0.36700
N1516       N  0.79733032  0.25497503  0.49513300    -0.57300
N1517       N  0.75418345  0.20855284  0.49212003    -0.36700
N1518       N  0.70785717  0.25168774  0.49502370    -0.57300
C1519       C  0.77462662  0.31423599  0.50231798     0.26900
C1520       C  0.72759547  0.31257468  0.50251278     0.26900
C1521       C  0.77827269  0.19398522  0.50109444     0.26900
C1522       C  0.73093435  0.19216997  0.49982860     0.26900
C1523       C  0.81253682  0.27915015  0.48792564     0.35500
C1524       C  0.81389734  0.23185752  0.48759173     0.35500
C1525       C  0.69116009  0.27528053  0.48887109     0.35500
C1526       C  0.69225326  0.22775522  0.48779703     0.35500
C1527       C  0.76512703  0.34020061  0.51468685    -0.22000
C1528       C  0.73533372  0.33919750  0.51472309    -0.22000
C1529       C  0.77011702  0.16832368  0.51505734    -0.22000
C1530       C  0.74032874  0.16708242  0.51405859    -0.22000
C1531       C  0.83877665  0.27143659  0.47538144    -0.23100
C1532       C  0.83961133  0.24138069  0.47508361    -0.23100
C1533       C  0.66470008  0.26637292  0.47780980    -0.23100
C1534       C  0.66542491  0.23623517  0.47700166    -0.23100
C1535       C  0.80354002  0.30787489  0.49454557    -0.18400
C1536       C  0.69920972  0.30456675  0.49456095    -0.18400
C1537       C  0.70162199  0.19856697  0.49278559    -0.18400
C1538       C  0.80729715  0.20269979  0.49537887    -0.18400
H1539       H  0.77824495  0.35838263  0.52191066     0.14500
H1540       H  0.72098581  0.35651538  0.52191045     0.14500
H1541       H  0.78409750  0.15205684  0.52493485     0.14500
H1542       H  0.72707034  0.14970379  0.52294495     0.14500
H1543       H  0.85565168  0.28590277  0.46760843     0.12800
H1544       H  0.85734203  0.22806736  0.46711825     0.12800
H1545       H  0.64676401  0.28013312  0.47112377     0.12800
H1546       H  0.64813835  0.22225047  0.46941651     0.12800
H1547       H  0.75213040  0.27875006  0.48237465     0.26000
H1548       H  0.75373127  0.22702911  0.47872248     0.26000
C1549       C  0.91052565  0.40052262  0.50390808    -0.05400
C1550       C  0.91574281  0.37542315  0.02100509    -0.05300
C1551       C  0.89539096  0.35296870  0.02274492    -0.23400
C1552       C  0.87004582  0.35424209  0.00593619     0.18800
C1553       C  0.86496142  0.37839141  0.48875427     0.16000
C1554       C  0.88510322  0.40135306  0.48700881    -0.18500
C1555       C  0.83992528  0.37855174  0.47137779    -0.20300
C1556       C  0.82006059  0.35560044  0.47331874    -0.12900
C1557       C  0.82478826  0.33221457  0.49274794     0.03800
C1558       C  0.84959564  0.33166793  0.00748220    -0.25000
H1559       H  0.93513088  0.37405710  0.03428781     0.08900
H1560       H  0.89950822  0.33458465  0.03718161     0.12500
H1561       H  0.88126478  0.41958763  0.47226930     0.12400
H1562       H  0.83577383  0.39633520  0.45621453     0.12200
H1563       H  0.80095598  0.35598213  0.45957336     0.12700
H1564       H  0.85311057  0.31328952  0.02211962     0.14700
C1565       C  0.90063648  0.09390561  0.49841692    -0.05400
C1566       C  0.87461473  0.08497334  0.48509219    -0.05300
C1567       C  0.85148720  0.10442063  0.48152283    -0.23400
C1568       C  0.85352435  0.13315156  0.49178015     0.18800
C1569       C  0.88040629  0.14320481  0.00685481     0.16000
C1570       C  0.90411364  0.12372900  0.00926831    -0.18500
C1571       C  0.88193628  0.17172493  0.01796219    -0.20300
C1572       C  0.85823581  0.19076794  0.01538247    -0.12900
C1573       C  0.83181237  0.18138379  0.49940586     0.03800
C1574       C  0.83046900  0.15295830  0.48777266    -0.25000
H1575       H  0.87231953  0.06295003  0.47676531     0.08900
H1576       H  0.83197643  0.09694594  0.47073532     0.12500
H1577       H  0.92410397  0.13098131  0.01929581     0.12400
H1578       H  0.90135303  0.17923608  0.02888436     0.12200
H1579       H  0.85988135  0.21244843  0.02470137     0.12700
H1580       H  0.81145265  0.14624916  0.47564373     0.14700
C1581       C  0.60107531  0.40637018  0.50686978    -0.05400
C1582       C  0.59952693  0.38683573  0.02959886    -0.05300
C1583       C  0.61821800  0.36289410  0.03150246    -0.23400
C1584       C  0.63828921  0.35747840  0.00914860     0.18800
C1585       C  0.64140152  0.37795066  0.48757635     0.16000
C1586       C  0.62285795  0.40236625  0.48581042    -0.18500
C1587       C  0.66253880  0.37298230  0.46608285    -0.20300
C1588       C  0.68062263  0.34848610  0.46794184    -0.12900
C1589       C  0.67775967  0.32851098  0.49117585     0.03800
C1590       C  0.65660946  0.33294075  0.01054568    -0.25000
H1591       H  0.58373666  0.39030139  0.04678128     0.08900
H1592       H  0.61664269  0.34836066  0.05021160     0.12500
H1593       H  0.62456820  0.41750275  0.46757484     0.12400
H1594       H  0.66518495  0.38809059  0.44796368     0.12200
H1595       H  0.69724032  0.34527547  0.45148822     0.12700
H1596       H  0.65573877  0.31831962  0.02925422     0.14700
C1597       C  0.59547342  0.10313804  0.50403239    -0.05400
C1598       C  0.58850586  0.12924393  0.01869602    -0.05300
C1599       C  0.60795258  0.15264582  0.02000431    -0.23400
C1600       C  0.63523515  0.15064548  0.00661534     0.18800
C1601       C  0.64195197  0.12527169  0.49050082     0.16000
C1602       C  0.62256030  0.10142980  0.48983020    -0.18500
C1603       C  0.66830786  0.12429960  0.47519833    -0.20300
C1604       C  0.68709557  0.14831319  0.47546259    -0.12900
C1605       C  0.68036384  0.17368896  0.49153141     0.03800
C1606       C  0.65458002  0.17447180  0.00710948    -0.25000
H1607       H  0.56745063  0.13169769  0.02887356     0.09300
H1608       H  0.60143208  0.17251890  0.03109481     0.12500
H1609       H  0.62816545  0.08195056  0.47757612     0.12400
H1610       H  0.67430525  0.10504755  0.46279645     0.12200
H1611       H  0.70716302  0.14701093  0.46321698     0.12700
H1612       H  0.64873922  0.19415815  0.01890159     0.14700
C1613       C  0.82845741  0.48322299  0.32775175    -0.05400
C1614       C  0.82607521  0.46044353  0.34834690    -0.05300
C1615       C  0.84494667  0.45883792  0.37232299    -0.23400
C1616       C  0.86629794  0.48026219  0.37633277     0.18800
C1617       C  0.87011062  0.00122667  0.35425447     0.16000
C1618       C  0.85163821  0.00186227  0.32982573    -0.18500
C1619       C  0.89191167  0.02219576  0.35726784    -0.20300
C1620       C  0.90999298  0.02180717  0.38169811    -0.12900
C1621       C  0.90625317  0.50111035  0.40432601     0.03800
C1622       C  0.88481258  0.47958494  0.40092677    -0.25000
H1623       H  0.80918058  0.44421428  0.34610435     0.08900
H1624       H  0.84248526  0.44118439  0.38799517     0.12500
H1625       H  0.85391835  0.01891523  0.31344867     0.12400
H1626       H  0.89509804  0.03883278  0.34064178     0.12200
H1627       H  0.92698333  0.03803488  0.38327712     0.12700
H1628       H  0.88306759  0.46208458  0.41689295     0.14700
C1629       C  0.59578701  0.50619587  0.40049844    -0.05400
C1630       C  0.59019052  0.02033768  0.37539326    -0.05300
C1631       C  0.60969968  0.02035748  0.35204281    -0.23400
C1632       C  0.63544150  0.00417601  0.35380036     0.18800
C1633       C  0.64086573  0.48956186  0.37836609     0.16000
C1634       C  0.62170614  0.49018736  0.40223625    -0.18500
C1635       C  0.66597285  0.47233106  0.37932866    -0.20300
C1636       C  0.68490227  0.47181704  0.35549133    -0.12900
C1637       C  0.67963856  0.48929344  0.33067413     0.03800
C1638       C  0.65506138  0.00399048  0.33032462    -0.25000
H1639       H  0.57025769  0.03273733  0.37339589     0.08900
H1640       H  0.60449881  0.03276884  0.33249306     0.12500
H1641       H  0.62647527  0.47750552  0.42175116     0.12400
H1642       H  0.67091373  0.45916687  0.39845127     0.12200
H1643       H  0.70410443  0.45820190  0.35663357     0.12700
H1644       H  0.65079018  0.01729819  0.31111794     0.14700
C1645       C  0.60326609  0.49603918  0.09482147    -0.05400
C1646       C  0.62585756  0.47635911  0.08843599    -0.05300
C1647       C  0.64883913  0.47234256  0.10795153    -0.23400
C1648       C  0.65005848  0.48848306  0.13395762     0.18800
C1649       C  0.62777100  0.00791595  0.14089909     0.16000
C1650       C  0.60442586  0.01140059  0.12133411    -0.18500
C1651       C  0.62877889  0.02376018  0.16710888    -0.20300
C1652       C  0.65177567  0.01981437  0.18663945    -0.12900
C1653       C  0.67450904  0.50135069  0.17949163     0.03800
C1654       C  0.67321408  0.48473720  0.15367562    -0.25000
H1655       H  0.62548000  0.46369773  0.06842021     0.08900
H1656       H  0.66572895  0.45674004  0.10261164     0.12500
H1657       H  0.58690581  0.02635517  0.12651053     0.12400
H1658       H  0.61175614  0.03917515  0.17253892     0.12200
H1659       H  0.65211495  0.03231106  0.20674392     0.12700
H1660       H  0.69009067  0.46884798  0.14912732     0.14700
C1661       C  0.82447325  0.49073959  0.17343557    -0.05400
C1662       C  0.81809093  0.47310875  0.14910634    -0.05300
C1663       C  0.83720631  0.47143643  0.12535310    -0.23400
C1664       C  0.86326500  0.48716220  0.12559753     0.18800
C1665       C  0.87007638  0.00522134  0.14991658     0.16000
C1666       C  0.85030844  0.00736983  0.17325895    -0.18500
C1667       C  0.89652102  0.02008896  0.15091806    -0.20300
C1668       C  0.91622270  0.01775432  0.12782703    -0.12900
C1669       C  0.90912865  0.50106884  0.10269795     0.03800
C1670       C  0.88273310  0.48573464  0.10179956    -0.25000
H1671       H  0.79815617  0.46067921  0.14850677     0.08900
H1672       H  0.83163156  0.45780599  0.10684543     0.12500
H1673       H  0.85525963  0.02109182  0.19190585     0.12400
H1674       H  0.90204962  0.03345738  0.16963710     0.12200
H1675       H  0.93647852  0.02957254  0.12924021     0.12700
H1676       H  0.87762379  0.47239530  0.08292443     0.14700
C1677       C  0.50650310  0.10012819  0.40613826    -0.05400
C1678       C  0.52680869  0.12251656  0.41064229    -0.05300
C1679       C  0.52893046  0.14588290  0.39100405    -0.23400
C1680       C  0.51018475  0.14767216  0.36696818     0.18800
C1681       C  0.98960735  0.12527122  0.36237342     0.16000
C1682       C  0.98821943  0.10137303  0.38171242    -0.18500
C1683       C  0.97024462  0.12751307  0.33889325    -0.20300
C1684       C  0.97135698  0.15159856  0.32011436    -0.12900
C1685       C  0.49195924  0.17366680  0.32421094     0.03800
C1686       C  0.51142360  0.17163521  0.34768718    -0.25000
H1687       H  0.54111354  0.12185438  0.42942708     0.08900
H1688       H  0.54484689  0.16279932  0.39491555     0.12500
H1689       H  0.97221062  0.08438002  0.37845161     0.12400
H1690       H  0.95414013  0.11074247  0.33515486     0.12200
H1691       H  0.95619944  0.15295156  0.30206869     0.12700
H1692       H  0.52744853  0.18863303  0.35081308     0.14700
C1693       C  0.48538585  0.32828030  0.32609419    -0.05400
C1694       C  0.96573385  0.35144992  0.32237720    -0.05300
C1695       C  0.96639693  0.37582926  0.34076421    -0.23400
C1696       C  0.98653250  0.37733797  0.36364377     0.18800
C1697       C  0.50567024  0.35364436  0.36834552     0.16000
C1698       C  0.50509549  0.32931328  0.34950848    -0.18500
C1699       C  0.52518346  0.35473543  0.39179837    -0.20300
C1700       C  0.52535694  0.37881543  0.41060582    -0.12900
C1701       C  0.50651268  0.40262006  0.40600245     0.03800
C1702       C  0.98740876  0.40190126  0.38217710    -0.25000
H1703       H  0.95028696  0.35101605  0.30455048     0.08900
H1704       H  0.95126647  0.39358634  0.33696594     0.12500
H1705       H  0.52038897  0.31153834  0.35256838     0.12400
H1706       H  0.54002605  0.33678551  0.39585962     0.12200
H1707       H  0.54022638  0.37882372  0.42894298     0.12700
H1708       H  0.97238932  0.41986463  0.37883418     0.14700
C1709       C  0.50824101  0.40282358  0.09793268    -0.05400
C1710       C  0.52634326  0.37849955  0.09339431    -0.05300
C1711       C  0.52449717  0.35397395  0.11156961    -0.23400
C1712       C  0.50399640  0.35309690  0.13419050     0.18800
C1713       C  0.98568837  0.37748226  0.13886575     0.16000
C1714       C  0.98829666  0.40241341  0.12104314    -0.18500
C1715       C  0.96473553  0.37634299  0.16105230    -0.20300
C1716       C  0.96267394  0.35173245  0.17907895    -0.12900
C1717       C  0.48153977  0.32794857  0.17536382     0.03800
C1718       C  0.50182711  0.32846464  0.15246886    -0.25000
H1719       H  0.54166668  0.37833640  0.07545232     0.08900
H1720       H  0.53874490  0.33552911  0.10762127     0.12500
H1721       H  0.97389232  0.42089912  0.12426131     0.12400
H1722       H  0.95025512  0.39464908  0.16475460     0.12200
H1723       H  0.94696507  0.35161946  0.19671459     0.12700
H1724       H  0.51658908  0.31019798  0.14967537     0.14700
C1725       C  0.48400879  0.17464085  0.17602395    -0.05400
C1726       C  0.96384399  0.15219366  0.18047612    -0.05300
C1727       C  0.96347852  0.12782825  0.16208959    -0.23400
C1728       C  0.98354174  0.12552566  0.13914484     0.18800
C1729       C  0.50356435  0.14849230  0.13424962     0.16000
C1730       C  0.50351988  0.17296404  0.15262104    -0.18500
C1731       C  0.52358005  0.14645168  0.11132543    -0.20300
C1732       C  0.52360971  0.12207353  0.09314114    -0.12900
C1733       C  0.50389645  0.09920919  0.09774917     0.03800
C1734       C  0.98394656  0.10079879  0.12094856    -0.25000
H1735       H  0.94879850  0.15326803  0.19866055     0.08900
H1736       H  0.94788200  0.11060592  0.16610996     0.12500
H1737       H  0.51923284  0.19026719  0.14939018     0.12400
H1738       H  0.53905961  0.16378566  0.10732418     0.12200
H1739       H  0.53897878  0.12108482  0.07523056     0.12700
H1740       H  0.96835625  0.08337893  0.12417154     0.14700
N1741       N  0.49410668  0.25147005  0.79576869    -0.36700
N1742       N  0.49385456  0.20741495  0.75044258    -0.57300
N1743       N  0.48952078  0.25155911  0.70535269    -0.36700
N1744       N  0.48712830  0.29583867  0.75073533    -0.57300
C1745       C  0.48868380  0.22707094  0.81166978     0.26900
C1746       C  0.48575227  0.27473750  0.81197950     0.26900
C1747       C  0.48227149  0.22741017  0.69008295     0.26900
C1748       C  0.48017798  0.27496095  0.68993176     0.26900
C1749       C  0.50206661  0.19108993  0.77361159     0.35500
C1750       C  0.49933626  0.19118460  0.72647959     0.35500
C1751       C  0.49384778  0.31257912  0.77408674     0.35500
C1752       C  0.49206717  0.31253172  0.72679616     0.35500
C1753       C  0.47695438  0.23492617  0.83849448    -0.22000
C1754       C  0.47516618  0.26507460  0.83871432    -0.22000
C1755       C  0.46831960  0.23555410  0.66442545    -0.22000
C1756       C  0.46711778  0.26570655  0.66426995    -0.22000
C1757       C  0.51345438  0.16460061  0.76433488    -0.23100
C1758       C  0.51176730  0.16467864  0.73435644    -0.23100
C1759       C  0.50330719  0.33985309  0.76493969    -0.23100
C1760       C  0.50223584  0.33980695  0.73494278    -0.23100
C1761       C  0.49535467  0.19816305  0.80282149    -0.18400
C1762       C  0.48904388  0.30435411  0.80351689    -0.18400
C1763       C  0.48494921  0.30431573  0.69793453    -0.18400
C1764       C  0.48956089  0.19849978  0.69821555    -0.18400
H1765       H  0.47051826  0.22048194  0.85613373     0.14500
H1766       H  0.46707345  0.27834485  0.85653106     0.14500
H1767       H  0.46014007  0.22130373  0.64747658     0.14500
H1768       H  0.45780775  0.27925630  0.64722418     0.14500
H1769       H  0.52113260  0.14669586  0.77782103     0.12800
H1770       H  0.51795170  0.14686833  0.72007355     0.12800
H1771       H  0.50999414  0.35799443  0.77848595     0.12800
H1772       H  0.50790507  0.35792291  0.72077287     0.12800
H1773       H  0.50561746  0.25239438  0.77618345     0.26000
H1774       H  0.50292738  0.25226226  0.72363820     0.26000
O1775       O  0.50050939  0.08406699  0.54873166    -0.86600
O1776       O  0.50755889  0.41883299  0.54880342    -0.86800
O1777       O  0.95801858  0.50092946  0.58624151    -0.88400
O1778       O  0.55349467  0.50023145  0.58344362    -0.87200
O1779       O  0.58717932  0.50050311  0.54630923    -0.86800
O1780       O  0.92156451  0.49830718  0.55207282    -0.88100
O1781       O  0.50493614  0.45314596  0.58534288    -0.86600
O1782       O  0.50218819  0.04946186  0.58525147    -0.86200
Zr1783     Zr  0.50470028  0.50115631  0.56136547     2.84300
O1784       O  0.53411707  0.47328312  0.53038301    -1.08200
O1785       O  0.97266680  0.02947107  0.53199680    -1.08900
C1786       C  0.50143784  0.07614622  0.57576980     1.06500
C1787       C  0.50656985  0.42654200  0.57590247     1.06500
C1788       C  0.93104067  0.49980260  0.57876949     1.09400
C1789       C  0.57985568  0.49935603  0.57355908     1.07200
H1790       H  0.96393566  0.45826595  0.54461324     0.32800
O1791       O  0.97527611  0.47100424  0.53228780    -1.29100
H1792       H  0.54372795  0.04430450  0.54275049     0.32400
O1793       O  0.53183925  0.03187652  0.53073506    -1.30800
O1794       O  0.50668879  0.41798289  0.95531768    -0.86600
O1795       O  0.50369099  0.08451046  0.95528795    -0.88100
O1796       O  0.92205982  0.45021092  0.00160739    -0.86700
O1797       O  0.58688852  0.45597803  0.00049608    -0.86700
O1798       O  0.58444226  0.05209717  0.00085457    -0.86400
O1799       O  0.91905634  0.04603194  0.00204721    -0.86200
O1800       O  0.95437837  0.50138833  0.91941364    -0.86600
O1801       O  0.54785048  0.50348072  0.91747800    -0.86100
O1802       O  0.91916549  0.49752250  0.95485236    -0.87100
O1803       O  0.58432707  0.50320971  0.95164083    -0.86300
O1804       O  0.95909485  0.41662455  0.00292010    -0.86700
O1805       O  0.95254060  0.08307041  0.00211668    -0.86400
O1806       O  0.54750189  0.08568419  0.00373396    -0.86100
O1807       O  0.55224558  0.42014206  0.00383102    -0.86500
O1808       O  0.50201941  0.45249854  0.91897861    -0.86800
O1809       O  0.50137620  0.04989877  0.91900625    -0.88100
Zr1810     Zr  0.50490183  0.44290834  0.00205623     2.83100
Zr1811     Zr  0.50096286  0.05994326  0.00222901     2.83500
Zr1812     Zr  0.94379023  0.49870164  0.00283747     2.84100
Zr1813     Zr  0.56155297  0.50331062  0.99991877     2.83400
Zr1814     Zr  0.50151281  0.50104684  0.94250952     2.84200
O1815       O  0.53064572  0.03195163  0.97152481    -1.08700
O1816       O  0.97373918  0.47046733  0.97261187    -1.08200
C1817       C  0.50477153  0.42578273  0.92823437     1.06500
C1818       C  0.50331706  0.07658338  0.92822953     1.09100
C1819       C  0.93202297  0.42380017  0.00226551     1.06700
C1820       C  0.57869148  0.42903002  0.00290199     1.07000
C1821       C  0.57468151  0.07861373  0.00286007     1.06600
C1822       C  0.92614767  0.07336043  0.00157182     1.06200
C1823       C  0.92778532  0.49964808  0.92787947     1.06600
C1824       C  0.57477387  0.50366286  0.92504607     1.06100
H1825       H  0.95956366  0.04192726  0.96091289     0.32800
O1826       O  0.97200562  0.02991218  0.97293066    -1.29800
H1827       H  0.54494133  0.46067412  0.95895430     0.32800
O1828       O  0.53275421  0.47260929  0.97123402    -1.31200
N1829       N  0.75086677  0.49349814  0.70825062    -0.36700
N1830       N  0.79747163  0.49211408  0.75144936    -0.57300
N1831       N  0.75391209  0.48712634  0.79701389    -0.36700
N1832       N  0.70782352  0.49174851  0.75432722    -0.57300
C1833       C  0.77400428  0.50174683  0.69204016     0.26900
C1834       C  0.72674912  0.50206920  0.69362337     0.26900
C1835       C  0.77801616  0.49257455  0.81283917     0.26900
C1836       C  0.73089789  0.49361172  0.81420004     0.26900
C1837       C  0.81295634  0.48738746  0.72673027     0.35500
C1838       C  0.81451111  0.48379013  0.77412767     0.35500
C1839       C  0.69092000  0.48665365  0.73079729     0.35500
C1840       C  0.69248161  0.48325353  0.77804753     0.35500
C1841       C  0.76451105  0.51601195  0.66696671    -0.22000
C1842       C  0.73467978  0.51628923  0.66800510    -0.22000
C1843       C  0.77031520  0.50299327  0.84024126    -0.22000
C1844       C  0.74057377  0.50398205  0.84098881    -0.22000
C1845       C  0.84004247  0.47622092  0.73383129    -0.23100
C1846       C  0.84106760  0.47411721  0.76387353    -0.23100
C1847       C  0.66477256  0.47460141  0.73952553    -0.23100
C1848       C  0.66579636  0.47235252  0.76953459    -0.23100
C1849       C  0.80320333  0.49419750  0.69804460    -0.18400
C1850       C  0.69792730  0.49550125  0.70201815    -0.18400
C1851       C  0.70164395  0.48756684  0.80722569    -0.18400
C1852       C  0.80661277  0.48604160  0.80396860    -0.18400
H1853       H  0.77772431  0.52490374  0.64950996     0.14500
H1854       H  0.72048059  0.52547630  0.65151883     0.14500
H1855       H  0.78463888  0.50892194  0.85799471     0.14500
H1856       H  0.72760712  0.51088540  0.85948175     0.14500
H1857       H  0.85727173  0.47005232  0.71899480     0.12800
H1858       H  0.85917993  0.46617700  0.77667541     0.12800
H1859       H  0.64675390  0.46842291  0.72574161     0.12800
H1860       H  0.64872881  0.46399449  0.78346959     0.12800
H1861       H  0.75150556  0.47957036  0.72629736     0.26000
H1862       H  0.75325651  0.47590058  0.77724105     0.26000
N1863       N  0.75130658  0.29760272  0.99179653    -0.36700
N1864       N  0.79753728  0.25547810  0.99375993    -0.57300
N1865       N  0.75499843  0.20867159  0.99245314    -0.36700
N1866       N  0.70813339  0.25142030  0.99320285    -0.57300
C1867       C  0.77414480  0.31476944  0.99848776     0.26900
C1868       C  0.72712178  0.31271236  0.99869043     0.26900
C1869       C  0.77916750  0.19466791  0.00215378     0.26900
C1870       C  0.73181856  0.19231399  0.00046312     0.26900
C1871       C  0.81244524  0.27951882  0.98558116     0.35500
C1872       C  0.81454709  0.23230519  0.98746718     0.35500
C1873       C  0.69105833  0.27460370  0.98652703     0.35500
C1874       C  0.69280695  0.22706818  0.98682658     0.35500
C1875       C  0.76439825  0.34087707  0.01035452    -0.22000
C1876       C  0.73462447  0.33963374  0.01036132    -0.22000
C1877       C  0.77112160  0.16942185  0.01690552    -0.22000
C1878       C  0.74134979  0.16783394  0.01564911    -0.22000
C1879       C  0.83888746  0.27164410  0.97356005    -0.23100
C1880       C  0.84019876  0.24163254  0.97468487    -0.23100
C1881       C  0.66464530  0.26503945  0.97595176    -0.23100
C1882       C  0.66581743  0.23490626  0.97590561    -0.23100
C1883       C  0.80320488  0.30834595  0.99131355    -0.18400
C1884       C  0.69872023  0.30413290  0.99140971    -0.18400
C1885       C  0.70246785  0.19815513  0.99292641    -0.18400
C1886       C  0.80819423  0.20339996  0.99631415    -0.18400
H1887       H  0.77734140  0.35923309  0.01745166     0.14500
H1888       H  0.72013084  0.35689747  0.01737670     0.14500
H1889       H  0.78518094  0.15363709  0.02743524     0.14500
H1890       H  0.72819338  0.15061834  0.02499654     0.14500
H1891       H  0.85561629  0.28600069  0.96526856     0.12800
H1892       H  0.85817487  0.22826355  0.96740481     0.12800
H1893       H  0.64645792  0.27836565  0.96908043     0.12800
H1894       H  0.64865433  0.22052011  0.96880922     0.12800
H1895       H  0.75203087  0.27860129  0.97932177     0.26000
H1896       H  0.75447208  0.22665166  0.97840024     0.26000
C1897       C  0.91080779  0.39980897  0.00294290    -0.05400
C1898       C  0.91550114  0.37673711  0.52274417    -0.05300
C1899       C  0.89528058  0.35420835  0.52512056    -0.23400
C1900       C  0.86999241  0.35475813  0.50819355     0.18800
C1901       C  0.86516167  0.37841393  0.98715110     0.16000
C1902       C  0.88543317  0.40124295  0.98603340    -0.18500
C1903       C  0.84010847  0.37927911  0.96982612    -0.20300
C1904       C  0.82006373  0.35646370  0.97116969    -0.12900
C1905       C  0.82460337  0.33257003  0.99001656     0.03800
C1906       C  0.84976890  0.33196833  0.51023776    -0.25000
H1907       H  0.93486782  0.37588532  0.53609921     0.08900
H1908       H  0.89948987  0.33629299  0.54010862     0.12500
H1909       H  0.88169089  0.41990368  0.97181153     0.12400
H1910       H  0.83608745  0.39750662  0.95516277     0.12200
H1911       H  0.80096085  0.35736972  0.95744489     0.12700
H1912       H  0.85343796  0.31395633  0.52528569     0.14700
C1913       C  0.90174010  0.09468491  0.99929065    -0.05400
C1914       C  0.87536078  0.08561391  0.98682097    -0.05300
C1915       C  0.85219385  0.10502920  0.98355339    -0.23400
C1916       C  0.85451639  0.13391146  0.99325879     0.18800
C1917       C  0.87902994  0.14217533  0.50628441     0.16000
C1918       C  0.90265153  0.12270136  0.50903777    -0.18500
C1919       C  0.88034263  0.17046758  0.51791437    -0.20300
C1920       C  0.85681476  0.18960341  0.51500346    -0.12900
C1921       C  0.83284129  0.18221399  0.00058182     0.03800
C1922       C  0.83131993  0.15358295  0.98954150    -0.25000
H1923       H  0.87275546  0.06345701  0.97896078     0.08900
H1924       H  0.83238710  0.09738760  0.97345767     0.12500
H1925       H  0.92233821  0.12977901  0.51977900     0.12400
H1926       H  0.89946161  0.17772787  0.52951827     0.12200
H1927       H  0.85825627  0.21108623  0.52480052     0.12700
H1928       H  0.81205605  0.14661387  0.97797783     0.14700
C1929       C  0.60087270  0.40606602  0.00565185    -0.05400
C1930       C  0.59870656  0.38659688  0.53028785    -0.05300
C1931       C  0.61735927  0.36267253  0.53254393    -0.23400
C1932       C  0.63846864  0.35784788  0.51106902     0.18800
C1933       C  0.64008096  0.37696231  0.98502651     0.16000
C1934       C  0.62150767  0.40138791  0.98357073    -0.18500
C1935       C  0.66019017  0.37142816  0.96267573    -0.20300
C1936       C  0.67845140  0.34703877  0.96433732    -0.12900
C1937       C  0.67676549  0.32768206  0.98820315     0.03800
C1938       C  0.65664940  0.33324629  0.51269099    -0.25000
H1939       H  0.58215232  0.38963423  0.54677115     0.08900
H1940       H  0.61493065  0.34767891  0.55079132     0.12500
H1941       H  0.62233346  0.41605026  0.96488705     0.12400
H1942       H  0.66196408  0.38606964  0.94406927     0.12200
H1943       H  0.69435093  0.34348012  0.94724572     0.12700
H1944       H  0.65484530  0.31809790  0.53090491     0.14700
C1945       C  0.59607260  0.10296588  0.00460747    -0.05400
C1946       C  0.58858387  0.12869014  0.51967795    -0.05300
C1947       C  0.60805443  0.15205482  0.52114611    -0.23400
C1948       C  0.63467795  0.15075745  0.50639662     0.18800
C1949       C  0.64314039  0.12447250  0.99222727     0.16000
C1950       C  0.62379411  0.10060307  0.99182739    -0.18500
C1951       C  0.67002944  0.12287577  0.97797325    -0.20300
C1952       C  0.68870174  0.14697633  0.97769902    -0.12900
C1953       C  0.68142169  0.17302242  0.99240291     0.03800
C1954       C  0.65401645  0.17458310  0.50712517    -0.25000
H1955       H  0.56804801  0.13057627  0.53096210     0.09300
H1956       H  0.60207209  0.17134671  0.53349516     0.12500
H1957       H  0.62993736  0.08058744  0.98075575     0.12400
H1958       H  0.67647899  0.10310186  0.96666920     0.12200
H1959       H  0.70909622  0.14522255  0.96608032     0.12700
H1960       H  0.64864343  0.19377456  0.51991779     0.14700
C1961       C  0.82892284  0.48243923  0.82728598    -0.05400
C1962       C  0.82601327  0.46023827  0.84845160    -0.05300
C1963       C  0.84445241  0.45913169  0.87276330    -0.23400
C1964       C  0.86604081  0.48035239  0.87641731     0.18800
C1965       C  0.86933328  0.00305309  0.85511474     0.16000
C1966       C  0.85064109  0.00431835  0.83086144    -0.18500
C1967       C  0.89173195  0.02338680  0.85799743    -0.20300
C1968       C  0.91013081  0.02230376  0.88216401    -0.12900
C1969       C  0.90611310  0.50116792  0.90416729     0.03800
C1970       C  0.88413620  0.48015313  0.90129877    -0.25000
H1971       H  0.80887896  0.44422621  0.84650145     0.08900
H1972       H  0.84147084  0.44203793  0.88895716     0.12500
H1973       H  0.85325463  0.02135191  0.81451611     0.12400
H1974       H  0.89514234  0.04006938  0.84146431     0.12200
H1975       H  0.92752946  0.03809458  0.88364742     0.12700
H1976       H  0.88177425  0.46325934  0.91782917     0.14700
C1977       C  0.59609356  0.50420578  0.90105321    -0.05400
C1978       C  0.58896588  0.02133697  0.87460374    -0.05300
C1979       C  0.60813772  0.02130553  0.85096862    -0.23400
C1980       C  0.63399261  0.00529184  0.85251899     0.18800
C1981       C  0.64119466  0.48720602  0.87920153     0.16000
C1982       C  0.62199105  0.48814757  0.90305176    -0.18500
C1983       C  0.66632064  0.46998793  0.88034345    -0.20300
C1984       C  0.68525628  0.46921315  0.85648233    -0.12900
C1985       C  0.67995906  0.48639279  0.83145081     0.03800
C1986       C  0.65351919  0.00535085  0.82899139    -0.25000
H1987       H  0.56892955  0.03359836  0.87280748     0.08900
H1988       H  0.60263667  0.03359356  0.83142154     0.12500
H1989       H  0.62670434  0.47570284  0.92273455     0.12400
H1990       H  0.67127931  0.45705730  0.89962122     0.12200
H1991       H  0.70448965  0.45565801  0.85777611     0.12700
H1992       H  0.64912374  0.01872748  0.80985829     0.14700
C1993       C  0.60391680  0.49586235  0.59470726    -0.05400
C1994       C  0.62735221  0.47742965  0.58768986    -0.05300
C1995       C  0.65027755  0.47343617  0.60727240    -0.23400
C1996       C  0.65054384  0.48829827  0.63405573     0.18800
C1997       C  0.62743743  0.00858262  0.64039477     0.16000
C1998       C  0.60387096  0.01171501  0.62110041    -0.18500
C1999       C  0.62868316  0.02489735  0.66627183    -0.20300
C2000       C  0.65198784  0.02151316  0.68547597    -0.12900
C2001       C  0.67389547  0.49971189  0.68055604     0.03800
C2002       C  0.67352004  0.48438061  0.65392583    -0.25000
H2003       H  0.62767556  0.46565833  0.56713489     0.08900
H2004       H  0.66782142  0.45877764  0.60142565     0.12500
H2005       H  0.58638536  0.02672149  0.62625278     0.12400
H2006       H  0.61161166  0.04026143  0.67169095     0.12200
H2007       H  0.65246442  0.03430608  0.70538847     0.12700
H2008       H  0.69104040  0.46939836  0.64881122     0.14700
C2009       C  0.82399379  0.49259388  0.67294672    -0.05400
C2010       C  0.81776684  0.47478109  0.64870746    -0.05300
C2011       C  0.83714592  0.47270467  0.62519405    -0.23400
C2012       C  0.86334346  0.48819383  0.62556852     0.18800
C2013       C  0.87016357  0.00484237  0.65043141     0.16000
C2014       C  0.85065816  0.00708815  0.67396684    -0.18500
C2015       C  0.89674599  0.01942125  0.65130658    -0.20300
C2016       C  0.91606913  0.01732044  0.62789801    -0.12900
C2017       C  0.90965359  0.50133346  0.60305981     0.03800
C2018       C  0.88313206  0.48621750  0.60206604    -0.25000
H2019       H  0.79785387  0.46231890  0.64809130     0.08900
H2020       H  0.83172288  0.45883077  0.60682238     0.12500
H2021       H  0.85597342  0.02060931  0.69265818     0.12400
H2022       H  0.90263900  0.03247273  0.67013671     0.12200
H2023       H  0.93641678  0.02898485  0.62923509     0.12700
H2024       H  0.87812009  0.47269521  0.58329561     0.14700
C2025       C  0.50601529  0.10029613  0.90647718    -0.05400
C2026       C  0.52618832  0.12274375  0.91124859    -0.05300
C2027       C  0.52854082  0.14609086  0.89165462    -0.23400
C2028       C  0.51018942  0.14782022  0.86733023     0.18800
C2029       C  0.98954102  0.12540932  0.86247385     0.16000
C2030       C  0.98794163  0.10148942  0.88182776    -0.18500
C2031       C  0.97065120  0.12758856  0.83856726    -0.20300
C2032       C  0.97220631  0.15160404  0.81967306    -0.12900
C2033       C  0.49293551  0.17370122  0.82412907     0.03800
C2034       C  0.51186384  0.17170342  0.84801454    -0.25000
H2035       H  0.54029630  0.12210498  0.93018497     0.08900
H2036       H  0.54440359  0.16300791  0.89577523     0.12500
H2037       H  0.97210200  0.08439393  0.87828783     0.12400
H2038       H  0.95463789  0.11079630  0.83454044     0.12200
H2039       H  0.95747739  0.15289190  0.80126341     0.12700
H2040       H  0.52787218  0.18866602  0.85140686     0.14700
C2041       C  0.48690271  0.32799057  0.82586323    -0.05400
C2042       C  0.96644419  0.35048837  0.82252085    -0.05300
C2043       C  0.96620186  0.37447035  0.84143328    -0.23400
C2044       C  0.98641897  0.37633622  0.86422400     0.18800
C2045       C  0.50650271  0.35334096  0.86836080     0.16000
C2046       C  0.50672442  0.32936011  0.84912216    -0.18500
C2047       C  0.52626510  0.35485787  0.89156828    -0.20300
C2048       C  0.52581553  0.37869767  0.91065691    -0.12900
C2049       C  0.50605374  0.40180972  0.90657349     0.03800
C2050       C  0.98659433  0.40063087  0.88310527    -0.25000
H2051       H  0.95094459  0.34973798  0.80475269     0.08900
H2052       H  0.95035866  0.39167262  0.83807691     0.12500
H2053       H  0.52268634  0.31212055  0.85175378     0.12400
H2054       H  0.54188133  0.33748134  0.89513609     0.12200
H2055       H  0.54102201  0.37914412  0.92870231     0.12700
H2056       H  0.97093909  0.41810380  0.88016010     0.14700
C2057       C  0.50684839  0.40249810  0.59732000    -0.05400
C2058       C  0.52598974  0.37895420  0.59328844    -0.05300
C2059       C  0.52483854  0.35452410  0.61156309    -0.23400
C2060       C  0.50409101  0.35300341  0.63387750     0.18800
C2061       C  0.98442600  0.37639334  0.63786535     0.16000
C2062       C  0.98612454  0.40119136  0.61972479    -0.18500
C2063       C  0.96332545  0.37452107  0.65988399    -0.20300
C2064       C  0.96259881  0.35027836  0.67853958    -0.12900
C2065       C  0.48280976  0.32760570  0.67540571     0.03800
C2066       C  0.50302507  0.32863980  0.65252895    -0.25000
H2067       H  0.54172669  0.37939553  0.57575108     0.08900
H2068       H  0.53999886  0.33673705  0.60807945     0.12500
H2069       H  0.97079744  0.41900104  0.62238291     0.12400
H2070       H  0.94781273  0.39204804  0.66306703     0.12200
H2071       H  0.94682123  0.34961205  0.69609970     0.12700
H2072       H  0.51862524  0.31103983  0.65008000     0.14700
C2073       C  0.48619181  0.17453305  0.67682054    -0.05400
C2074       C  0.96716215  0.15129290  0.68268879    -0.05300
C2075       C  0.96626826  0.12699921  0.66425585    -0.23400
C2076       C  0.98454298  0.12557452  0.63977707     0.18800
C2077       C  0.50325426  0.14933716  0.63348270     0.16000
C2078       C  0.50382452  0.17368495  0.65193929    -0.18500
C2079       C  0.52147696  0.14817158  0.60906577    -0.20300
C2080       C  0.52107836  0.12384423  0.59088697    -0.12900
C2081       C  0.50269812  0.10016801  0.59690008     0.03800
C2082       C  0.98451216  0.10092442  0.62148468    -0.25000
H2083       H  0.95348312  0.15176812  0.70196985     0.08900
H2084       H  0.95167758  0.10918051  0.66939131     0.12500
H2085       H  0.51860695  0.19157177  0.64755658     0.12400
H2086       H  0.53595525  0.16609663  0.60396140     0.12200
H2087       H  0.53516834  0.12348298  0.57193321     0.12700
H2088       H  0.96997723  0.08283835  0.62587811     0.14700
N2089       N  0.49545733  0.75148890  0.29583995    -0.36700
N2090       N  0.49461768  0.70740407  0.25035568    -0.57300
N2091       N  0.48992024  0.75155386  0.20545221    -0.36700
N2092       N  0.48805382  0.79585058  0.25094555    -0.57300
C2093       C  0.49024529  0.72704198  0.31172367     0.26900
C2094       C  0.48717079  0.77469847  0.31218395     0.26900
C2095       C  0.48248382  0.72747891  0.19014491     0.26900
C2096       C  0.48070921  0.77505245  0.19011576     0.26900
C2097       C  0.50323537  0.69113527  0.27341537     0.35500
C2098       C  0.49978471  0.69116359  0.22631543     0.35500
C2099       C  0.49488829  0.81257339  0.27428293     0.35500
C2100       C  0.49302737  0.81251574  0.22699406     0.35500
C2101       C  0.47874408  0.73480417  0.33868251    -0.22000
C2102       C  0.47686657  0.76494587  0.33899496    -0.22000
C2103       C  0.46848214  0.73577622  0.16456371    -0.22000
C2104       C  0.46749214  0.76594358  0.16447919    -0.22000
C2105       C  0.51454522  0.66466610  0.26398302    -0.23100
C2106       C  0.51239888  0.66470151  0.23402958    -0.23100
C2107       C  0.50440692  0.83981385  0.26512672    -0.23100
C2108       C  0.50331964  0.83975168  0.23513233    -0.23100
C2109       C  0.49686595  0.69816982  0.30272086    -0.18400
C2110       C  0.49023254  0.80434195  0.30372905    -0.18400
C2111       C  0.48582408  0.80434654  0.19812974    -0.18400
C2112       C  0.48975175  0.69851483  0.19813711    -0.18400
H2113       H  0.47249739  0.72030396  0.35634569     0.14500
H2114       H  0.46889102  0.77814873  0.35691512     0.14500
H2115       H  0.46018949  0.72162198  0.14759038     0.14500
H2116       H  0.45825873  0.77959948  0.14747491     0.14500
H2117       H  0.52247479  0.64680003  0.27737161     0.12800
H2118       H  0.51845778  0.64691183  0.21966743     0.12800
H2119       H  0.51119136  0.85792152  0.27866946     0.12800
H2120       H  0.50905780  0.85784053  0.22095756     0.12800
H2121       H  0.50675146  0.75245487  0.27612797     0.26000
H2122       H  0.50343300  0.75216594  0.22365825     0.26000
O2123       O  0.50068865  0.58386918  0.04855706    -0.86600
O2124       O  0.50812273  0.91850861  0.04867906    -0.86800
O2125       O  0.95809430  0.00066005  0.08611413    -0.88400
O2126       O  0.55356162  0.00029741  0.08348135    -0.87200
O2127       O  0.58726807  0.00061364  0.04636304    -0.86800
O2128       O  0.92162941  0.99816267  0.05194451    -0.88100
O2129       O  0.50550405  0.95288568  0.08515263    -0.86600
O2130       O  0.50232106  0.54935209  0.08516264    -0.86200
Zr2131     Zr  0.50482351  0.00101691  0.06130175     2.84300
O2132       O  0.53425517  0.97318471  0.03034682    -1.08200
O2133       O  0.97270168  0.52926485  0.03199061    -1.08900
C2134       C  0.50162245  0.57602671  0.07562386     1.06500
C2135       C  0.50726642  0.92626205  0.07575665     1.06500
C2136       C  0.93111844  0.99957361  0.07863264     1.09400
C2137       C  0.57992665  0.99948756  0.07361277     1.07200
H2138       H  0.96405085  0.95811940  0.04462475     0.32800
O2139       O  0.97535588  0.97086300  0.03227202    -1.29100
H2140       H  0.54370926  0.54414697  0.04259845     0.32400
O2141       O  0.53181003  0.53167274  0.03064118    -1.30800
O2142       O  0.50683015  0.91844295  0.45519359    -0.86600
O2143       O  0.50370572  0.58485244  0.45558412    -0.88100
O2144       O  0.92211456  0.95031893  0.50158683    -0.86700
O2145       O  0.58683565  0.95608925  0.50062557    -0.86700
O2146       O  0.58441365  0.55208737  0.50090195    -0.86400
O2147       O  0.91887918  0.54601513  0.50218268    -0.86200
O2148       O  0.95468089  0.00152385  0.41931524    -0.86600
O2149       O  0.54804355  0.00404425  0.41753063    -0.86100
O2150       O  0.91938019  0.99739456  0.45463807    -0.87100
O2151       O  0.58446312  0.00348878  0.45174119    -0.86300
O2152       O  0.95920253  0.91679322  0.50269614    -0.86700
O2153       O  0.95235057  0.58306811  0.50215894    -0.86400
O2154       O  0.54750802  0.58570597  0.50393358    -0.86100
O2155       O  0.55212931  0.92032371  0.50400609    -0.86500
O2156       O  0.50232619  0.95303301  0.41889336    -0.86800
O2157       O  0.50138846  0.55030158  0.41923827    -0.88100
Zr2158     Zr  0.50486894  0.94317979  0.50205834     2.83100
Zr2159     Zr  0.50085749  0.56011128  0.50239603     2.83500
Zr2160     Zr  0.94377332  0.99890870  0.50277646     2.84100
Zr2161     Zr  0.56157871  0.00351366  0.49996958     2.83400
Zr2162     Zr  0.50165675  0.00149143  0.44257209     2.84200
O2163       O  0.53052694  0.53214806  0.47162610    -1.08700
O2164       O  0.97388925  0.97084872  0.47256501    -1.08200
C2165       C  0.50507124  0.92630584  0.42811069     1.06500
C2166       C  0.50338830  0.57696281  0.42851903     1.09100
C2167       C  0.93211806  0.92390796  0.50212750     1.06700
C2168       C  0.57859070  0.92915361  0.50310255     1.07000
C2169       C  0.57468246  0.57860136  0.50298635     1.06600
C2170       C  0.92595853  0.57333355  0.50165017     1.06200
C2171       C  0.92807789  0.99952785  0.42768258     1.06600
C2172       C  0.57496909  0.00411139  0.42512895     1.06100
H2173       H  0.95947892  0.54211672  0.46101253     0.32800
O2174       O  0.97193255  0.53009160  0.47300773    -1.29800
H2175       H  0.54498639  0.96098370  0.45898307     0.32800
O2176       O  0.53277833  0.97289585  0.47126611    -1.31200
N2177       N  0.75106652  0.99286190  0.20818888    -0.36700
N2178       N  0.79771612  0.99080943  0.25130967    -0.57300
N2179       N  0.75419371  0.98639785  0.29694127    -0.36700
N2180       N  0.70805630  0.99167335  0.25431761    -0.57300
C2181       C  0.77427307  0.00076996  0.19189843     0.26900
C2182       C  0.72701572  0.00157392  0.19351840     0.26900
C2183       C  0.77839530  0.99182829  0.31263666     0.26900
C2184       C  0.73129490  0.99346496  0.31406494     0.26900
C2185       C  0.81317595  0.98609741  0.22657940     0.35500
C2186       C  0.81475586  0.98245864  0.27397333     0.35500
C2187       C  0.69100737  0.98684537  0.23083149     0.35500
C2188       C  0.69263461  0.98348053  0.27809812     0.35500
C2189       C  0.76488015  0.01495277  0.16673467    -0.22000
C2190       C  0.73506174  0.01550189  0.16778045    -0.22000
C2191       C  0.77087291  0.00282155  0.33985778    -0.22000
C2192       C  0.74114673  0.00416906  0.34064761    -0.22000
C2193       C  0.84025208  0.97487431  0.23365686    -0.23100
C2194       C  0.84128948  0.97273486  0.26370103    -0.23100
C2195       C  0.66467897  0.97526741  0.23964951    -0.23100
C2196       C  0.66574948  0.97302159  0.26966324    -0.23100
C2197       C  0.80343788  0.99304530  0.19791832    -0.18400
C2198       C  0.69811608  0.99544502  0.20199396    -0.18400
C2199       C  0.70194209  0.98773789  0.30724714    -0.18400
C2200       C  0.80691832  0.98491246  0.30380934    -0.18400
H2201       H  0.77814528  0.02361752  0.14920402     0.14500
H2202       H  0.72094205  0.02470051  0.15123127     0.14500
H2203       H  0.78530750  0.00894724  0.35745011     0.14500
H2204       H  0.72828761  0.01157875  0.35901997     0.14500
H2205       H  0.85748235  0.96873751  0.21880709     0.12800
H2206       H  0.85941754  0.96481225  0.27649231     0.12800
H2207       H  0.64652204  0.96938231  0.22592034     0.12800
H2208       H  0.64857838  0.96497035  0.28364858     0.12800
H2209       H  0.75158030  0.97908880  0.22635415     0.26000
H2210       H  0.75335456  0.97488787  0.27733363     0.26000
N2211       N  0.75128054  0.79755639  0.49284129    -0.36700
N2212       N  0.79748031  0.75546690  0.49370432    -0.57300
N2213       N  0.75492248  0.70863198  0.49211769    -0.36700
N2214       N  0.70807925  0.75138794  0.49398123    -0.57300
C2215       C  0.77417393  0.81465578  0.49953450     0.26900
C2216       C  0.72713992  0.81258769  0.50005183     0.26900
C2217       C  0.77916685  0.69458839  0.50154738     0.26900
C2218       C  0.73182088  0.69223260  0.50025588     0.26900
C2219       C  0.81231624  0.77960300  0.48567711     0.35500
C2220       C  0.81435389  0.73236280  0.48683253     0.35500
C2221       C  0.69097766  0.77464995  0.48765602     0.35500
C2222       C  0.69271644  0.72711794  0.48738040     0.35500
C2223       C  0.76450082  0.84061824  0.51178169    -0.22000
C2224       C  0.73472011  0.83937646  0.51196695    -0.22000
C2225       C  0.77124471  0.66928118  0.51627232    -0.22000
C2226       C  0.74146819  0.66768109  0.51524115    -0.22000
C2227       C  0.83856701  0.77185715  0.47314774    -0.23100
C2228       C  0.83983870  0.74182773  0.47381732    -0.23100
C2229       C  0.66450882  0.76520998  0.47710518    -0.23100
C2230       C  0.66566935  0.73508167  0.47670895    -0.23100
C2231       C  0.80317372  0.80835703  0.49194390    -0.18400
C2232       C  0.69870618  0.80413135  0.49273829    -0.18400
C2233       C  0.70242101  0.69813770  0.49303762    -0.18400
C2234       C  0.80812970  0.70338515  0.49551435    -0.18400
H2235       H  0.77748641  0.85890826  0.51896809     0.14500
H2236       H  0.72026506  0.85657078  0.51922969     0.14500
H2237       H  0.78537807  0.65347534  0.52666591     0.14500
H2238       H  0.72838276  0.65043461  0.52463457     0.14500
H2239       H  0.85520362  0.78629910  0.46481746     0.12800
H2240       H  0.85769701  0.72852759  0.46612579     0.12800
H2241       H  0.64629395  0.77861329  0.47046439     0.12800
H2242       H  0.64847329  0.72077811  0.46952656     0.12800
H2243       H  0.75189766  0.77872175  0.48011155     0.26000
H2244       H  0.75427229  0.72670531  0.47818476     0.26000
C2245       C  0.91097654  0.89981048  0.50275751    -0.05400
C2246       C  0.91488673  0.87734543  0.02400247    -0.05300
C2247       C  0.89456930  0.85491697  0.02657954    -0.23400
C2248       C  0.86974895  0.85489807  0.00894864     0.18800
C2249       C  0.86501157  0.87859217  0.48762777     0.16000
C2250       C  0.88518296  0.90152209  0.48652601    -0.18500
C2251       C  0.83951644  0.87977999  0.47099567    -0.20300
C2252       C  0.81953374  0.85690961  0.47237754    -0.12900
C2253       C  0.82455223  0.83262930  0.49060232     0.03800
C2254       C  0.84951550  0.83211138  0.01109318    -0.25000
H2255       H  0.93389932  0.87692825  0.03788415     0.08900
H2256       H  0.89836081  0.83749734  0.04225066     0.12500
H2257       H  0.88101454  0.92049424  0.47285043     0.12400
H2258       H  0.83508998  0.89831559  0.45684836     0.12200
H2259       H  0.80008876  0.85808886  0.45917268     0.12700
H2260       H  0.85280597  0.81454059  0.02674018     0.14700
C2261       C  0.90153226  0.59460744  0.49929828    -0.05400
C2262       C  0.87509140  0.58541381  0.48704103    -0.05300
C2263       C  0.85196672  0.60483844  0.48355455    -0.23400
C2264       C  0.85440061  0.63384997  0.49283450     0.18800
C2265       C  0.87872233  0.64161372  0.00742394     0.16000
C2266       C  0.90238383  0.62217866  0.01008867    -0.18500
C2267       C  0.87972733  0.66964038  0.01971940    -0.20300
C2268       C  0.85621385  0.68878880  0.01673966    -0.12900
C2269       C  0.83285350  0.68227612  0.49964982     0.03800
C2270       C  0.83126528  0.65354133  0.48888570    -0.25000
H2271       H  0.87241359  0.56316137  0.47948027     0.08900
H2272       H  0.83211662  0.59711019  0.47361199     0.12500
H2273       H  0.92186998  0.62905948  0.02132235     0.12400
H2274       H  0.89861591  0.67670278  0.03182129     0.12200
H2275       H  0.85742820  0.71010423  0.02692956     0.12700
H2276       H  0.81196552  0.64647768  0.47744134     0.14700
C2277       C  0.60069887  0.90611541  0.50601624    -0.05400
C2278       C  0.59894663  0.88647572  0.03047481    -0.05300
C2279       C  0.61757600  0.86251843  0.03268621    -0.23400
C2280       C  0.63874578  0.85776320  0.01125272     0.18800
C2281       C  0.64019181  0.87706144  0.48586019     0.16000
C2282       C  0.62166793  0.90152393  0.48423918    -0.18500
C2283       C  0.66068947  0.87166487  0.46384213    -0.20300
C2284       C  0.67894393  0.84728597  0.46569521    -0.12900
C2285       C  0.67686548  0.82778416  0.48941245     0.03800
C2286       C  0.65684142  0.83307793  0.01274971    -0.25000
H2287       H  0.58235230  0.88945970  0.04691233     0.08900
H2288       H  0.61506253  0.84743263  0.05084592     0.12500
H2289       H  0.62281923  0.91629956  0.46566392     0.12400
H2290       H  0.66277973  0.88641330  0.44535510     0.12200
H2291       H  0.69512915  0.84383196  0.44885719     0.12700
H2292       H  0.65493816  0.81781089  0.03085348     0.14700
C2293       C  0.59611149  0.60290394  0.50475396    -0.05400
C2294       C  0.58793434  0.62896934  0.01831154    -0.05300
C2295       C  0.60732114  0.65240852  0.01958903    -0.23400
C2296       C  0.63416678  0.65086886  0.00528469     0.18800
C2297       C  0.64308157  0.62448482  0.49213270     0.16000
C2298       C  0.62371571  0.60063233  0.49169410    -0.18500
C2299       C  0.66984935  0.62300975  0.47762849    -0.20300
C2300       C  0.68853525  0.64710326  0.47742973    -0.12900
C2301       C  0.68137854  0.67301405  0.49243319     0.03800
C2302       C  0.65352293  0.67467588  0.00599233    -0.25000
H2303       H  0.56724270  0.63102820  0.02928282     0.09300
H2304       H  0.60112568  0.67192110  0.03147703     0.12500
H2305       H  0.62974108  0.58071327  0.48038477     0.12400
H2306       H  0.67619339  0.60334024  0.46608429     0.12200
H2307       H  0.70883781  0.64545185  0.46563222     0.12700
H2308       H  0.64799652  0.69400710  0.01850332     0.14700
C2309       C  0.82924874  0.98139903  0.32713451    -0.05400
C2310       C  0.82618670  0.95950377  0.34859903    -0.05300
C2311       C  0.84466439  0.95854953  0.37289475    -0.23400
C2312       C  0.86640725  0.97966070  0.37626894     0.18800
C2313       C  0.86910434  0.50293383  0.35531763     0.16000
C2314       C  0.85032888  0.50414776  0.33113157    -0.18500
C2315       C  0.89037276  0.52434802  0.35904650    -0.20300
C2316       C  0.90882605  0.52332017  0.38318350    -0.12900
C2317       C  0.90649856  0.00070986  0.40384464     0.03800
C2318       C  0.88448091  0.97970034  0.40117699    -0.25000
H2319       H  0.80891181  0.94361804  0.34688812     0.08900
H2320       H  0.84156548  0.94169248  0.38931325     0.12500
H2321       H  0.85205461  0.52187957  0.31542161     0.12400
H2322       H  0.89283815  0.54185653  0.34321189     0.12200
H2323       H  0.92535269  0.53996058  0.38535221     0.12700
H2324       H  0.88202506  0.96303142  0.41792042     0.14700
C2325       C  0.59638188  0.00473924  0.40118067    -0.05400
C2326       C  0.58940406  0.52198160  0.37484678    -0.05300
C2327       C  0.60881224  0.52224755  0.35138975    -0.23400
C2328       C  0.63461580  0.50613262  0.35292696     0.18800
C2329       C  0.64162325  0.98788710  0.37943532     0.16000
C2330       C  0.62233044  0.98875104  0.40323178    -0.18500
C2331       C  0.66675791  0.97067863  0.38060576    -0.20300
C2332       C  0.68567009  0.96980862  0.35671995    -0.12900
C2333       C  0.68035632  0.98688048  0.33161101     0.03800
C2334       C  0.65427898  0.50631938  0.32949065    -0.25000
H2335       H  0.56942512  0.53433684  0.37305109     0.08900
H2336       H  0.60351626  0.53482282  0.33196809     0.12500
H2337       H  0.62700418  0.97627049  0.42290091     0.12400
H2338       H  0.67170517  0.95776724  0.39989954     0.12200
H2339       H  0.70486231  0.95619461  0.35802412     0.12700
H2340       H  0.65001983  0.51985148  0.31043624     0.14700
C2341       C  0.60397122  0.99599576  0.09477280    -0.05400
C2342       C  0.62706681  0.97705004  0.08801080    -0.05300
C2343       C  0.64995441  0.97295911  0.10761481    -0.23400
C2344       C  0.65053162  0.98822638  0.13416242     0.18800
C2345       C  0.62773046  0.50880602  0.14031210     0.16000
C2346       C  0.60424270  0.51214575  0.12091839    -0.18500
C2347       C  0.62935905  0.52553195  0.16591465    -0.20300
C2348       C  0.65256874  0.52190700  0.18522150    -0.12900
C2349       C  0.67413328  0.99983506  0.18049379     0.03800
C2350       C  0.67345093  0.98415747  0.15407396    -0.25000
H2351       H  0.62713212  0.96494331  0.06765002     0.08900
H2352       H  0.66721833  0.95788671  0.10197711     0.12500
H2353       H  0.58708938  0.52762972  0.12578621     0.12400
H2354       H  0.61266193  0.54140802  0.17103800     0.12200
H2355       H  0.65335150  0.53504137  0.20489847     0.12700
H2356       H  0.69068359  0.96877292  0.14916288     0.14700
C2357       C  0.82424873  0.99157324  0.17283667    -0.05400
C2358       C  0.81793731  0.97407042  0.14839321    -0.05300
C2359       C  0.83720847  0.97233171  0.12477246    -0.23400
C2360       C  0.86342069  0.98777990  0.12528297     0.18800
C2361       C  0.87000898  0.50463273  0.15019134     0.16000
C2362       C  0.85049114  0.50655671  0.17373866    -0.18500
C2363       C  0.89620807  0.51992697  0.15087193    -0.20300
C2364       C  0.91561765  0.51796519  0.12751682    -0.12900
C2365       C  0.90974342  0.00099958  0.10290797     0.03800
C2366       C  0.88314729  0.98604705  0.10172560    -0.25000
H2367       H  0.79800895  0.96164011  0.14767088     0.08900
H2368       H  0.83170402  0.95872791  0.10622329     0.12500
H2369       H  0.85547052  0.52035550  0.19232222     0.12400
H2370       H  0.90176023  0.53336846  0.16953186     0.12200
H2371       H  0.93570304  0.53010093  0.12869445     0.12700
H2372       H  0.87805443  0.97278605  0.08278986     0.14700
C2373       C  0.50630039  0.60066429  0.40680438    -0.05400
C2374       C  0.52668883  0.62291515  0.41156774    -0.05300
C2375       C  0.52942975  0.64609579  0.39182417    -0.23400
C2376       C  0.51124056  0.64786334  0.36737456     0.18800
C2377       C  0.99035148  0.62566325  0.36254855     0.16000
C2378       C  0.98841766  0.60189153  0.38203176    -0.18500
C2379       C  0.97159795  0.62785730  0.33854244    -0.20300
C2380       C  0.97344898  0.65173377  0.31952039    -0.12900
C2381       C  0.49442571  0.67366460  0.32395721     0.03800
C2382       C  0.51329713  0.67157386  0.34788581    -0.25000
H2383       H  0.54070339  0.62221363  0.43057330     0.08900
H2384       H  0.54547509  0.66284494  0.39591174     0.12500
H2385       H  0.97246081  0.58490811  0.37848603     0.12400
H2386       H  0.95542654  0.61120865  0.33456473     0.12200
H2387       H  0.95874865  0.65308993  0.30109187     0.12700
H2388       H  0.52947409  0.68838097  0.35123887     0.14700
C2389       C  0.48795724  0.82801581  0.32604596    -0.05400
C2390       C  0.96693431  0.85021927  0.32283459    -0.05300
C2391       C  0.96653339  0.87427822  0.34165466    -0.23400
C2392       C  0.98691624  0.87651797  0.36425928     0.18800
C2393       C  0.50755459  0.85384597  0.36827564     0.16000
C2394       C  0.50794095  0.82976580  0.34914251    -0.18500
C2395       C  0.52749040  0.85576030  0.39130358    -0.20300
C2396       C  0.52680776  0.87963474  0.41034765    -0.12900
C2397       C  0.50662681  0.90239296  0.40640239     0.03800
C2398       C  0.98690081  0.90087404  0.38307695    -0.25000
H2399       H  0.95131575  0.84920290  0.30518816     0.08900
H2400       H  0.95043856  0.89125368  0.33836437     0.12500
H2401       H  0.52414830  0.81275457  0.35172313     0.12400
H2402       H  0.54340812  0.83864870  0.39478720     0.12200
H2403       H  0.54213688  0.88037102  0.42827643     0.12700
H2404       H  0.97094738  0.91809082  0.38025359     0.14700
C2405       C  0.50775370  0.90225569  0.09722176    -0.05400
C2406       C  0.52675344  0.87860113  0.09307553    -0.05300
C2407       C  0.52570904  0.85425041  0.11148359    -0.23400
C2408       C  0.50513871  0.85288813  0.13398251     0.18800
C2409       C  0.98563715  0.87648484  0.13814165     0.16000
C2410       C  0.98733864  0.90121539  0.11993909    -0.18500
C2411       C  0.96471814  0.87485902  0.16034023    -0.20300
C2412       C  0.96385882  0.85062535  0.17897360    -0.12900
C2413       C  0.48385999  0.82765564  0.17562012     0.03800
C2414       C  0.50404570  0.82856702  0.15269901    -0.25000
H2415       H  0.54226978  0.87888053  0.07534808     0.08900
H2416       H  0.54075796  0.83638146  0.10792105     0.12500
H2417       H  0.97219916  0.91916315  0.12275264     0.12400
H2418       H  0.94940643  0.89254368  0.16363554     0.12200
H2419       H  0.94817987  0.85011642  0.19662865     0.12700
H2420       H  0.51954099  0.81087743  0.15021611     0.14700
C2421       C  0.48629624  0.67457704  0.17666827    -0.05400
C2422       C  0.96743595  0.65125230  0.18265572    -0.05300
C2423       C  0.96660885  0.62692283  0.16425202    -0.23400
C2424       C  0.98473857  0.62558927  0.13965483     0.18800
C2425       C  0.50322867  0.64944123  0.13319128     0.16000
C2426       C  0.50372674  0.67383914  0.15161874    -0.18500
C2427       C  0.52130331  0.64835506  0.10864862    -0.20300
C2428       C  0.52100730  0.62396215  0.09053094    -0.12900
C2429       C  0.50286397  0.60013169  0.09671382     0.03800
C2430       C  0.98480916  0.60087730  0.12142178    -0.25000
H2431       H  0.95390372  0.65161783  0.20204436     0.08900
H2432       H  0.95220327  0.60898909  0.16952089     0.12500
H2433       H  0.51834531  0.69182958  0.14710507     0.12400
H2434       H  0.53559686  0.66639087  0.10340394     0.12200
H2435       H  0.53498979  0.62367874  0.07148809     0.12700
H2436       H  0.97044408  0.58268799  0.12595509     0.14700
N2437       N  0.49169483  0.75135919  0.79608371    -0.36700
N2438       N  0.49104149  0.70726304  0.75041054    -0.57300
N2439       N  0.48684820  0.75176958  0.70549539    -0.36700
N2440       N  0.48408337  0.79601925  0.75118888    -0.57300
C2441       C  0.48697381  0.72688092  0.81208413     0.26900
C2442       C  0.48368324  0.77455777  0.81259967     0.26900
C2443       C  0.48029205  0.72775307  0.68966824     0.26900
C2444       C  0.47852812  0.77539271  0.68977941     0.26900
C2445       C  0.49928486  0.69079564  0.77350447     0.35500
C2446       C  0.49589044  0.69089121  0.72635675     0.35500
C2447       C  0.49128313  0.81246149  0.77464447     0.35500
C2448       C  0.48974277  0.81264955  0.72733436     0.35500
C2449       C  0.47606407  0.73461748  0.83930603    -0.22000
C2450       C  0.47401070  0.76475305  0.83963761    -0.22000
C2451       C  0.46788464  0.73621661  0.66331112    -0.22000
C2452       C  0.46684583  0.76639005  0.66334912    -0.22000
C2453       C  0.50992695  0.66404264  0.76404429    -0.23100
C2454       C  0.50769390  0.66407188  0.73412462    -0.23100
C2455       C  0.50164752  0.83943174  0.76564068    -0.23100
C2456       C  0.50070950  0.83954214  0.73568593    -0.23100
C2457       C  0.49345224  0.69799212  0.80294349    -0.18400
C2458       C  0.48663438  0.80423407  0.80412237    -0.18400
C2459       C  0.48318616  0.80470716  0.69821423    -0.18400
C2460       C  0.48689213  0.69866277  0.69790077    -0.18400
H2461       H  0.47031109  0.72010427  0.85713057     0.14500
H2462       H  0.46639651  0.77790988  0.85774980     0.14500
H2463       H  0.46068539  0.72215905  0.64575274     0.14500
H2464       H  0.45865288  0.78011412  0.64586408     0.14500
H2465       H  0.51755997  0.64601169  0.77738783     0.12800
H2466       H  0.51339052  0.64613587  0.71979461     0.12800
H2467       H  0.50913108  0.85720002  0.77925267     0.12800
H2468       H  0.50731086  0.85743892  0.72165787     0.12800
H2469       H  0.50255649  0.75237325  0.77614108     0.26000
H2470       H  0.49926133  0.75226801  0.72446243     0.26000
O2471       O  0.50151799  0.58380442  0.54954717    -0.86600
O2472       O  0.50827555  0.91920938  0.54939297    -0.86800
O2473       O  0.95739286  0.00086768  0.58583938    -0.88400
O2474       O  0.55290533  0.00090834  0.58348334    -0.87200
O2475       O  0.58664346  0.00062595  0.54640276    -0.86800
O2476       O  0.92092908  0.99809845  0.55170417    -0.88100
O2477       O  0.50552601  0.95376865  0.58567349    -0.86600
O2478       O  0.50309250  0.54880596  0.58571450    -0.86200
Zr2479     Zr  0.50421419  0.00156323  0.56127756     2.84300
O2480       O  0.53377949  0.97352162  0.53061497    -1.08200
O2481       O  0.97321787  0.52942165  0.53240978    -1.08900
C2482       C  0.50244164  0.57557374  0.57651061     1.06500
C2483       C  0.50750256  0.92710024  0.57646312     1.06500
C2484       C  0.93041725  0.99961974  0.57839830     1.09400
C2485       C  0.57925349  0.99970924  0.57361944     1.07200
H2486       H  0.96369322  0.95822167  0.54478650     0.32800
O2487       O  0.97494341  0.97098807  0.53240264    -1.29100
H2488       H  0.54431046  0.54387635  0.54301902     0.32400
O2489       O  0.53234657  0.53158033  0.53094188    -1.30800
O2490       O  0.50716901  0.91834126  0.95499749    -0.86600
O2491       O  0.50350417  0.58409941  0.95468079    -0.88100
O2492       O  0.92193793  0.95084043  0.00190890    -0.86700
O2493       O  0.58749684  0.95616716  0.00092262    -0.86700
O2494       O  0.58368018  0.55218464  0.00009484    -0.86400
O2495       O  0.91816708  0.54520593  0.00176553    -0.86200
O2496       O  0.95466508  0.00127048  0.91951224    -0.86600
O2497       O  0.54761747  0.00485892  0.91716245    -0.86100
O2498       O  0.91946714  0.99769281  0.95497321    -0.87100
O2499       O  0.58426148  0.00405180  0.95113684    -0.86300
O2500       O  0.95888917  0.91712133  0.00303802    -0.86700
O2501       O  0.95148996  0.58241244  0.00150028    -0.86400
O2502       O  0.54664423  0.58569170  0.00290644    -0.86100
O2503       O  0.55270678  0.92050541  0.00460458    -0.86500
O2504       O  0.50278948  0.95303212  0.91880084    -0.86800
O2505       O  0.50187666  0.54925321  0.91858450    -0.88100
Zr2506     Zr  0.50515039  0.94302679  0.00177429     2.83100
Zr2507     Zr  0.50023089  0.55977206  0.00172059     2.83500
Zr2508     Zr  0.94417252  0.99911618  0.00295794     2.84100
Zr2509     Zr  0.56207006  0.00336827  0.99984051     2.83400
Zr2510     Zr  0.50176159  0.00150092  0.94262730     2.84200
O2511       O  0.53014759  0.53167589  0.97136250    -1.08700
O2512       O  0.97396778  0.97083695  0.97258647    -1.08200
C2513       C  0.50544924  0.92625312  0.92794213     1.06500
C2514       C  0.50367338  0.57598900  0.92767682     1.09100
C2515       C  0.93179963  0.92439544  0.00269369     1.06700
C2516       C  0.57921608  0.92929961  0.00379625     1.07000
C2517       C  0.57383099  0.57868650  0.00188057     1.06600
C2518       C  0.92514349  0.57253386  0.00110641     1.06200
C2519       C  0.92806754  0.99958320  0.92797138     1.06600
C2520       C  0.57454569  0.00501216  0.92458264     1.06100
H2521       H  0.95904099  0.54141515  0.96050368     0.32800
O2522       O  0.97148803  0.52946533  0.97257517    -1.29800
H2523       H  0.54533100  0.96096583  0.95872162     0.32800
O2524       O  0.53313180  0.97282146  0.97106527    -1.31200
N2525       N  0.75096748  0.99468506  0.70798950    -0.36700
N2526       N  0.79722054  0.99343206  0.75183939    -0.57300
N2527       N  0.75318303  0.98967620  0.79675955    -0.36700
N2528       N  0.70750984  0.99409113  0.75342367    -0.57300
C2529       C  0.77442319  0.00254821  0.69211117     0.26900
C2530       C  0.72718353  0.00351849  0.69296671     0.26900
C2531       C  0.77709071  0.99500197  0.81294574     0.26900
C2532       C  0.72995953  0.99631757  0.81356104     0.26900
C2533       C  0.81270706  0.98770058  0.72733838     0.35500
C2534       C  0.81387435  0.98513962  0.77483039     0.35500
C2535       C  0.69084120  0.98882826  0.72976632     0.35500
C2536       C  0.69190978  0.98576779  0.77701315     0.35500
C2537       C  0.76548065  0.01692181  0.66687519    -0.22000
C2538       C  0.73563170  0.01755238  0.66743050    -0.22000
C2539       C  0.76904546  0.00556513  0.84018870    -0.22000
C2540       C  0.73929462  0.00671695  0.84047109    -0.22000
C2541       C  0.83941165  0.97589972  0.73488308    -0.23100
C2542       C  0.84020610  0.97447428  0.76498314    -0.23100
C2543       C  0.66456319  0.97693692  0.73827383    -0.23100
C2544       C  0.66528601  0.97486636  0.76828881    -0.23100
C2545       C  0.80334878  0.99428250  0.69845437    -0.18400
C2546       C  0.69821920  0.99732055  0.70101289    -0.18400
C2547       C  0.70081507  0.99013458  0.80624688    -0.18400
C2548       C  0.80574675  0.98808109  0.80455992    -0.18400
H2549       H  0.77906632  0.02556313  0.64958474     0.14500
H2550       H  0.72176100  0.02680680  0.65069599     0.14500
H2551       H  0.78313171  0.01138423  0.85817106     0.14500
H2552       H  0.72607907  0.01364885  0.85877533     0.14500
H2553       H  0.85653370  0.96888380  0.72029963     0.12800
H2554       H  0.85797844  0.96624975  0.77809051     0.12800
H2555       H  0.64668884  0.97068814  0.72432944     0.12800
H2556       H  0.64806900  0.96658742  0.78207828     0.12800
H2557       H  0.75119987  0.98075381  0.72605013     0.26000
H2558       H  0.75270045  0.97831228  0.77706435     0.26000
N2559       N  0.75182324  0.79707000  0.99542478    -0.36700
N2560       N  0.79739113  0.75456640  0.99557237    -0.57300
N2561       N  0.75409510  0.70821274  0.99218415    -0.36700
N2562       N  0.70787335  0.75145920  0.99476392    -0.57300
C2563       C  0.77483021  0.81391353  0.00234824     0.26900
C2564       C  0.72779554  0.81232396  0.00248080     0.26900
C2565       C  0.77804934  0.69355165  0.00138490     0.26900
C2566       C  0.73071826  0.69182793  0.99950863     0.26900
C2567       C  0.81281389  0.77866101  0.98855023     0.35500
C2568       C  0.81403947  0.73136326  0.98849645     0.35500
C2569       C  0.69127853  0.77514110  0.98865577     0.35500
C2570       C  0.69224276  0.72760991  0.98730596     0.35500
C2571       C  0.76536076  0.83993519  0.01460073    -0.22000
C2572       C  0.73557257  0.83896155  0.01464025    -0.22000
C2573       C  0.76968138  0.66780573  0.01505328    -0.22000
C2574       C  0.73990891  0.66663610  0.01369934    -0.22000
C2575       C  0.83929083  0.77080764  0.97662233    -0.23100
C2576       C  0.84004757  0.74075081  0.97651260    -0.23100
C2577       C  0.66485870  0.76637589  0.97738684    -0.23100
C2578       C  0.66551081  0.73624392  0.97637864    -0.23100
C2579       C  0.80377358  0.80745217  0.99480167    -0.18400
C2580       C  0.69938607  0.80438359  0.99451646    -0.18400
C2581       C  0.70147345  0.69835430  0.99223191    -0.18400
C2582       C  0.80717654  0.70223819  0.99617100    -0.18400
H2583       H  0.77850487  0.85810904  0.02179710     0.14500
H2584       H  0.72125182  0.85631775  0.02178874     0.14500
H2585       H  0.78351739  0.65144392  0.02498360     0.14500
H2586       H  0.72652931  0.64923764  0.02235469     0.14500
H2587       H  0.85637343  0.78518342  0.96915253     0.12800
H2588       H  0.85790455  0.72734924  0.96899363     0.12800
H2589       H  0.64700646  0.78022863  0.97066238     0.12800
H2590       H  0.64823399  0.72236872  0.96857387     0.12800
H2591       H  0.75231693  0.77839837  0.98246674     0.26000
H2592       H  0.75384009  0.72677987  0.97891341     0.26000
C2593       C  0.91045796  0.90049245  0.00426004    -0.05400
C2594       C  0.91645591  0.87497759  0.52005222    -0.05300
C2595       C  0.89622888  0.85240234  0.52176825    -0.23400
C2596       C  0.87042929  0.85400669  0.50570947     0.18800
C2597       C  0.86523230  0.87792424  0.98866513     0.16000
C2598       C  0.88544724  0.90082092  0.98672115    -0.18500
C2599       C  0.84064644  0.87753217  0.97064268    -0.20300
C2600       C  0.82075725  0.85460627  0.97272851    -0.12900
C2601       C  0.82502615  0.83178157  0.99291457     0.03800
C2602       C  0.85002773  0.83138043  0.50733862    -0.25000
H2603       H  0.93618328  0.87333850  0.53278394     0.08900
H2604       H  0.90078185  0.83368358  0.53562938     0.12500
H2605       H  0.88200691  0.91859311  0.97132980     0.12400
H2606       H  0.83687681  0.89485344  0.95485454     0.12200
H2607       H  0.80200879  0.85455061  0.95848844     0.12700
H2608       H  0.85394930  0.81270410  0.52148405     0.14700
C2609       C  0.90065470  0.59365401  0.99871998    -0.05400
C2610       C  0.87489912  0.58492726  0.98476844    -0.05300
C2611       C  0.85174735  0.60435022  0.98129854    -0.23400
C2612       C  0.85349759  0.63282975  0.99227717     0.18800
C2613       C  0.88033262  0.64324810  0.50627451     0.16000
C2614       C  0.90398578  0.62375496  0.50891190    -0.18500
C2615       C  0.88197211  0.67189879  0.51700040    -0.20300
C2616       C  0.85831064  0.69095166  0.51426514    -0.12900
C2617       C  0.83154561  0.68083203  0.00048045     0.03800
C2618       C  0.83045213  0.65264003  0.98829542    -0.25000
H2619       H  0.87285541  0.56310138  0.97587130     0.08900
H2620       H  0.83245216  0.59706247  0.96999972     0.12500
H2621       H  0.92401506  0.63109449  0.51879505     0.12400
H2622       H  0.90142796  0.67949207  0.52779328     0.12200
H2623       H  0.86001338  0.71270811  0.52339170     0.12700
H2624       H  0.81166953  0.64614945  0.97568316     0.14700
C2625       C  0.60138135  0.90634756  0.00714584    -0.05400
C2626       C  0.59893930  0.88671641  0.52980362    -0.05300
C2627       C  0.61753744  0.86271376  0.53185322    -0.23400
C2628       C  0.63798290  0.85742189  0.50982272     0.18800
C2629       C  0.64180798  0.87801457  0.98790655     0.16000
C2630       C  0.62329017  0.90245978  0.98619641    -0.18500
C2631       C  0.66301132  0.87313926  0.96646023    -0.20300
C2632       C  0.68098936  0.84855514  0.96817899    -0.12900
C2633       C  0.67798286  0.82840308  0.99124157     0.03800
C2634       C  0.65628982  0.83287592  0.51140301    -0.25000
H2635       H  0.58290330  0.89011103  0.54675812     0.08900
H2636       H  0.61562843  0.84806311  0.55043852     0.12500
H2637       H  0.62509107  0.91768815  0.96804765     0.12400
H2638       H  0.66577095  0.88837356  0.94846515     0.12200
H2639       H  0.69764773  0.84541501  0.95175373     0.12700
H2640       H  0.65507390  0.81812138  0.52998603     0.14700
C2641       C  0.59512314  0.60311543  0.00329986    -0.05400
C2642       C  0.58869046  0.62904570  0.51915694    -0.05300
C2643       C  0.60816016  0.65241916  0.52049529    -0.23400
C2644       C  0.63531495  0.65052556  0.50683346     0.18800
C2645       C  0.64168317  0.62512939  0.98992345     0.16000
C2646       C  0.62236979  0.60122543  0.98945143    -0.18500
C2647       C  0.66822016  0.62394995  0.97496991    -0.20300
C2648       C  0.68699195  0.64797600  0.97512301    -0.12900
C2649       C  0.68010664  0.67355187  0.99081880     0.03800
C2650       C  0.65466668  0.67433548  0.50737738    -0.25000
H2651       H  0.56773274  0.63140880  0.52956116     0.09300
H2652       H  0.60175530  0.67219101  0.53183108     0.12500
H2653       H  0.62818376  0.58153151  0.97764612     0.12400
H2654       H  0.67438683  0.60451269  0.96294542     0.12200
H2655       H  0.70720988  0.64649020  0.96315616     0.12700
H2656       H  0.64893478  0.69391089  0.51940522     0.14700
C2657       C  0.82778420  0.98437739  0.82818165    -0.05400
C2658       C  0.82434099  0.96248914  0.84959900    -0.05300
C2659       C  0.84299299  0.96094295  0.87374559    -0.23400
C2660       C  0.86534208  0.98142461  0.87701777     0.18800
C2661       C  0.86961830  0.50222015  0.85468072     0.16000
C2662       C  0.85114535  0.50304595  0.83025920    -0.18500
C2663       C  0.89133412  0.52324619  0.85793799    -0.20300
C2664       C  0.90949063  0.52257791  0.88230937    -0.12900
C2665       C  0.90637933  0.00115565  0.90421689     0.03800
C2666       C  0.88376045  0.98076551  0.90169059    -0.25000
H2667       H  0.80673995  0.94697260  0.84788930     0.08900
H2668       H  0.83963727  0.94405188  0.89007558     0.12500
H2669       H  0.85331750  0.52031399  0.81409436     0.12400
H2670       H  0.89443104  0.54010658  0.84152151     0.12200
H2671       H  0.92645859  0.53881165  0.88405902     0.12700
H2672       H  0.88105135  0.96406947  0.91836547     0.14700
C2673       C  0.59563602  0.00592849  0.90041071    -0.05400
C2674       C  0.58980499  0.51972298  0.87524296    -0.05300
C2675       C  0.60921757  0.51964788  0.85182451    -0.23400
C2676       C  0.63496285  0.50347878  0.85356653     0.18800
C2677       C  0.64049889  0.98905976  0.87811257     0.16000
C2678       C  0.62157763  0.98998522  0.90214281    -0.18500
C2679       C  0.66563501  0.97188419  0.87908367    -0.20300
C2680       C  0.68443435  0.97123546  0.85515747    -0.12900
C2681       C  0.67901713  0.98856442  0.83027364     0.03800
C2682       C  0.65458812  0.50336965  0.83011463    -0.25000
H2683       H  0.56987799  0.53214017  0.87328680     0.08900
H2684       H  0.60396785  0.53201945  0.83226250     0.12500
H2685       H  0.62653479  0.97756417  0.92177764     0.12400
H2686       H  0.67074330  0.95894212  0.89831273     0.12200
H2687       H  0.70373583  0.95776826  0.85634070     0.12700
H2688       H  0.65030871  0.51670192  0.81092527     0.14700
C2689       C  0.60325033  0.99607810  0.59472583    -0.05400
C2690       C  0.62626458  0.97702198  0.58796808    -0.05300
C2691       C  0.64935919  0.97320611  0.60737604    -0.23400
C2692       C  0.65023401  0.98892276  0.63365244     0.18800
C2693       C  0.62741645  0.50744853  0.64106502     0.16000
C2694       C  0.60405203  0.51082088  0.62152168    -0.18500
C2695       C  0.62809201  0.52291335  0.66750658    -0.20300
C2696       C  0.65115289  0.51915282  0.68697902    -0.12900
C2697       C  0.67439313  0.00158882  0.67937187     0.03800
C2698       C  0.67348982  0.98540071  0.65327363    -0.25000
H2699       H  0.62616227  0.96472026  0.56772391     0.08900
H2700       H  0.66660303  0.95810988  0.60173989     0.12500
H2701       H  0.58627016  0.52538058  0.62690889     0.12400
H2702       H  0.61077301  0.53790984  0.67314979     0.12200
H2703       H  0.65124179  0.53137276  0.70725756     0.12700
H2704       H  0.69072444  0.96999086  0.64844935     0.14700
C2705       C  0.82423768  0.99196345  0.67352319    -0.05400
C2706       C  0.81745280  0.97472859  0.64900346    -0.05300
C2707       C  0.83654703  0.97278671  0.62523864    -0.23400
C2708       C  0.86300323  0.98782358  0.62564281     0.18800
C2709       C  0.86988806  0.50598672  0.64997882     0.16000
C2710       C  0.85004705  0.50840927  0.67324141    -0.18500
C2711       C  0.89628797  0.52094858  0.65083129    -0.20300
C2712       C  0.91602884  0.51841404  0.62778673    -0.12900
C2713       C  0.90915637  0.00097259  0.60281747     0.03800
C2714       C  0.88242625  0.98622153  0.60179163    -0.25000
H2715       H  0.79722587  0.96279693  0.64826458     0.08900
H2716       H  0.83063633  0.95949408  0.60659175     0.12500
H2717       H  0.85494137  0.52235157  0.69173881     0.12400
H2718       H  0.90173327  0.53458484  0.66938087     0.12200
H2719       H  0.93622310  0.53035404  0.62906581     0.12700
H2720       H  0.87697689  0.97326747  0.58274676     0.14700
C2721       C  0.50657788  0.59955009  0.90581379    -0.05400
C2722       C  0.52669103  0.62207919  0.91049807    -0.05300
C2723       C  0.52865876  0.64559183  0.89102002    -0.23400
C2724       C  0.50996132  0.64737489  0.86694667     0.18800
C2725       C  0.98952241  0.62470416  0.86201574     0.16000
C2726       C  0.98834529  0.60065474  0.88119625    -0.18500
C2727       C  0.97026937  0.62684550  0.83843253    -0.20300
C2728       C  0.97112476  0.65110371  0.81985643    -0.12900
C2729       C  0.49163648  0.67348330  0.82429608     0.03800
C2730       C  0.51100196  0.67150688  0.84786080    -0.25000
H2731       H  0.54091974  0.62145072  0.92934298     0.08900
H2732       H  0.54439458  0.66263830  0.89510497     0.12500
H2733       H  0.97257263  0.58347815  0.87773655     0.12400
H2734       H  0.95444924  0.60985708  0.83445244     0.12200
H2735       H  0.95608004  0.65234789  0.80170734     0.12700
H2736       H  0.52684123  0.68864642  0.85117002     0.14700
C2737       C  0.48497444  0.82801833  0.82646999    -0.05400
C2738       C  0.96549577  0.85152668  0.82247436    -0.05300
C2739       C  0.96643194  0.87595977  0.84076465    -0.23400
C2740       C  0.98635284  0.87716115  0.86384789     0.18800
C2741       C  0.50512516  0.85309014  0.86892569     0.16000
C2742       C  0.50434985  0.82872224  0.85016986    -0.18500
C2743       C  0.52435236  0.85388444  0.89262323    -0.20300
C2744       C  0.52481061  0.87806975  0.91127045    -0.12900
C2745       C  0.50653343  0.90224741  0.90627015     0.03800
C2746       C  0.98757030  0.90181269  0.88222318    -0.25000
H2747       H  0.95026864  0.85134804  0.80444985     0.08900
H2748       H  0.95171266  0.89401051  0.83670932     0.12500
H2749       H  0.51929913  0.81069282  0.85347063     0.12400
H2750       H  0.53875364  0.83564004  0.89698492     0.12200
H2751       H  0.53943866  0.87785661  0.92980502     0.12700
H2752       H  0.97298353  0.92008251  0.87859750     0.14700
C2753       C  0.50807399  0.90320654  0.59815691    -0.05400
C2754       C  0.52618544  0.87890725  0.59358326    -0.05300
C2755       C  0.52452287  0.85444705  0.61184961    -0.23400
C2756       C  0.50418701  0.85359316  0.63461279     0.18800
C2757       C  0.98568799  0.87795549  0.63931603     0.16000
C2758       C  0.98815902  0.90283389  0.62137524    -0.18500
C2759       C  0.96486462  0.87683165  0.66163639    -0.20300
C2760       C  0.96286860  0.85219960  0.67966057    -0.12900
C2761       C  0.48197064  0.82837374  0.67587240     0.03800
C2762       C  0.50213236  0.82894501  0.65287654    -0.25000
H2763       H  0.54137457  0.87870457  0.57553469     0.08900
H2764       H  0.53876629  0.83601279  0.60784030     0.12500
H2765       H  0.97376129  0.92132037  0.62461906     0.12400
H2766       H  0.95040376  0.89513965  0.66540837     0.12200
H2767       H  0.94722127  0.85207385  0.69735265     0.12700
H2768       H  0.51685868  0.81067098  0.64994786     0.14700
C2769       C  0.48409027  0.67489567  0.67613523    -0.05400
C2770       C  0.96314720  0.65287620  0.68010244    -0.05300
C2771       C  0.96260127  0.62856629  0.66163357    -0.23400
C2772       C  0.98303197  0.62588720  0.63905454     0.18800
C2773       C  0.50388740  0.64832758  0.63475536     0.16000
C2774       C  0.50407214  0.67274156  0.65319375    -0.18500
C2775       C  0.52434955  0.64582883  0.61228436    -0.20300
C2776       C  0.52410971  0.62155852  0.59396271    -0.12900
C2777       C  0.50368322  0.59924806  0.59799955     0.03800
C2778       C  0.98322729  0.60123729  0.62073943    -0.25000
H2779       H  0.94779280  0.65424396  0.69800149     0.08900
H2780       H  0.94656253  0.61168347  0.66529904     0.12500
H2781       H  0.52028149  0.68964055  0.65035987     0.12400
H2782       H  0.54038855  0.66273450  0.60873446     0.12200
H2783       H  0.53984515  0.62021089  0.57640278     0.12700
H2784       H  0.96719286  0.58416528  0.62356740     0.14700
loop_ 
_geom_bond_atom_site_label_1 
_geom_bond_atom_site_label_2 
_geom_bond_distance 
_geom_bond_site_symmetry_2 
_ccdc_geom_bond_type 
N1            C6   1.354       .  A
N1            C5   1.353       .  A
N1           H33   1.040   1_655  S
N2            C9   1.349       .  A
N2           C10   1.350       .  A
N3            C8   1.350       .  A
N3            C7   1.352       .  A
N3           H34   1.040       .  S
N4           C11   1.353       .  A
N4           C12   1.353       .  A
C5           C13   1.388       .  A
C5           C21   1.418       .  A
C6           C22   1.417       .  A
C6           C14   1.386       .  A
C7           C15   1.387       .  A
C7           C24   1.414       .  A
C8           C23   1.412       .  A
C8           C16   1.387       .  A
C9           C21   1.411       .  A
C9           C17   1.387   1_655  A
C10          C24   1.410       .  A
C10          C18   1.386   1_655  A
C11          C19   1.385   1_655  A
C11          C22   1.414       .  A
C12          C20   1.386   1_655  A
C12          C23   1.414       .  A
C13          C14   1.381       .  A
C13          H25   1.082       .  S
C14          H26   1.082       .  S
C15          C16   1.381       .  A
C15          H27   1.082       .  S
C16          H28   1.082       .  S
C17          C18   1.371       .  A
C17          H29   1.082       .  S
C18          H30   1.083       .  S
C19          C20   1.369       .  A
C19          H31   1.082       .  S
C20          H32   1.082       .  S
C21         C293   1.486       .  S
C22         C301   1.496       .  S
C23         C325   1.486       .  S
C24         C333   1.482       .  S
O35          C46   1.287       .  A
O35        Zr419   2.413       .  S
O36          C47   1.289       .  A
O36        Zr418   2.423       .  S
O37          C48   1.293       .  A
O37       Zr1435   2.436       .  S
O38          C49   1.298       .  A
O38         Zr43   2.467       .  S
O39          C49   1.290       .  A
O39        Zr421   2.424   1_554  S
O40          C48   1.298       .  A
O40        Zr420   2.467       .  S
O41          C47   1.295       .  A
O41         Zr43   2.454       .  S
O42          C46   1.294       .  A
O42        Zr739   2.451       .  S
Zr43       O1429   2.436   1_455  S
Zr43        O738   2.455       .  S
Zr43         O44   2.338       .  S
Zr43       O2133   2.350   1_455  S
Zr43        O749   2.343       .  S
Zr43       O1443   2.354   1_455  S
O44        Zr418   2.331       .  S
O44        Zr421   2.341   1_554  S
O45       Zr2131   2.351       .  S
O45       Zr1811   2.340       .  S
O45       Zr1116   2.353   1_545  S
C46         C341   1.465       .  S
C47         C317   1.473       .  S
C48         C277   1.485       .  S
C49         C253   1.479       .  S
H50          O51   0.964       .  S
O51       Zr1435   2.353       .  S
O51       Zr1810   2.337       .  S
O51        Zr420   2.349       .  S
H52          O53   0.964       .  S
O53        Zr739   2.343       .  S
O53        Zr419   2.345       .  S
O53       Zr1117   2.351   1_554  S
O54          C77   1.290       .  A
O54         Zr70   2.424       .  S
O55          C78   1.289       .  A
O55         Zr71   2.420       .  S
O56          C79   1.292       .  A
O56         Zr72   2.438       .  S
O57          C80   1.294       .  A
O57         Zr73   2.455       .  S
O58          C81   1.296       .  A
O58        Zr769   2.459       .  S
O59          C82   1.292       .  A
O59        Zr768   2.432   1_545  S
O60          C83   1.289       .  A
O60       Zr1466   2.420       .  S
O61          C84   1.290       .  A
O61         Zr74   2.423       .  S
O62          C83   1.298       .  A
O62         Zr72   2.473       .  S
O63          C84   1.294       .  A
O63         Zr73   2.448       .  S
O64          C79   1.293       .  A
O64       Zr1462   2.441       .  S
O65          C82   1.299       .  A
O65       Zr1463   2.475       .  S
O66          C81   1.296       .  A
O66         Zr71   2.456       .  S
O67          C80   1.289       .  A
O67         Zr70   2.423       .  S
O68          C77   1.298       .  A
O68         Zr74   2.472       .  S
O69          C78   1.295       .  A
O69        Zr770   2.458       .  S
Zr70        O384   2.422       .  S
Zr70       O1456   2.441   1_455  S
Zr70         O88   2.342       .  S
Zr70        O392   2.332       .  S
Zr70       O1791   2.336   1_455  S
Zr70       O1468   2.335   1_455  S
Zr71        O383   2.408       .  S
Zr71       O1457   2.475   1_455  S
Zr71         O75   2.341       .  S
Zr71       O1785   2.340   1_455  S
Zr71        O401   2.347       .  S
Zr71       O1478   2.341   1_455  S
Zr72        O388   2.469       .  S
Zr72        O755   2.433       .  S
Zr72         O76   2.342       .  S
Zr72       O1089   2.353       .  S
Zr72        O399   2.347       .  S
Zr72        O782   2.349       .  S
Zr73        O387   2.426       .  S
Zr73        O754   2.457       .  S
Zr73         O88   2.342       .  S
Zr73        O392   2.343       .  S
Zr73       O1097   2.352       .  S
Zr73        O771   2.339       .  S
Zr74       O1452   2.420   1_455  S
Zr74        O765   2.459       .  S
Zr74         O88   2.343       .  S
Zr74        O771   2.341       .  S
Zr74       O1468   2.342   1_455  S
Zr74       O2174   2.344   1_455  S
O75        Zr769   2.339       .  S
O75        Zr770   2.338       .  S
O76       Zr1462   2.335       .  S
O76       Zr1466   2.342       .  S
C77         C309   1.482       .  S
C78         C285   1.473       .  S
C79         C157   1.475       .  S
C80         C189   1.471       .  S
C81         C205   1.492       .  S
C82         C173   1.490       .  S
C83         C229   1.477       .  S
C84         C237   1.473       .  S
H85          O86   0.964       .  S
O86       Zr1463   2.341       .  S
O86        Zr768   2.351   1_545  S
O86       Zr2162   2.344       .  S
H87          O88   0.964       .  S
N89          C94   1.356       .  A
N89          C93   1.352       .  A
N89         H121   1.041       .  S
N90          C97   1.352       .  A
N90          C98   1.354       .  A
N91          C96   1.352       .  A
N91          C95   1.352       .  A
N91         H122   1.041       .  S
N92          C99   1.350       .  A
N92         C100   1.350       .  A
C93         C101   1.388       .  A
C93         C109   1.417       .  A
C94         C110   1.416       .  A
C94         C102   1.386       .  A
C95         C103   1.386       .  A
C95         C112   1.412       .  A
C96         C111   1.416       .  A
C96         C104   1.389       .  A
C97         C109   1.419       .  A
C97         C105   1.388       .  A
C98         C112   1.414       .  A
C98         C106   1.384       .  A
C99         C107   1.385       .  A
C99         C110   1.411       .  A
C100        C108   1.387       .  A
C100        C111   1.413       .  A
C101        C102   1.378       .  A
C101        H113   1.082       .  S
C102        H114   1.082       .  S
C103        C104   1.375       .  A
C103        H115   1.082       .  S
C104        H116   1.082       .  S
C105        C106   1.377       .  A
C105        H117   1.082       .  S
C106        H118   1.082       .  S
C107        C108   1.375       .  A
C107        H119   1.082       .  S
C108        H120   1.082       .  S
C109        C269   1.493       .  S
C110        C261   1.493       .  S
C111        C245   1.491       .  S
C112        C221   1.491       .  S
N123        C128   1.348       .  A
N123        C127   1.352       .  A
N123        H155   1.041       .  S
N124        C131   1.351       .  A
N124        C132   1.348       .  A
N125        C130   1.356       .  A
N125        C129   1.358       .  A
N125        H156   1.042       .  S
N126        C133   1.353       .  A
N126        C134   1.354       .  A
C127        C135   1.386       .  A
C127        C143   1.410       .  A
C128        C144   1.410       .  A
C128        C136   1.388       .  A
C129        C137   1.387       .  A
C129        C146   1.423       .  A
C130        C145   1.421       .  A
C130        C138   1.386       .  A
C131        C143   1.410       .  A
C131        C139   1.385       .  A
C132        C146   1.413       .  A
C132        C140   1.387       .  A
C133        C141   1.385       .  A
C133        C144   1.416       .  A
C134        C142   1.388       .  A
C134        C145   1.420       .  A
C135        C136   1.376       .  A
C135        H147   1.082       .  S
C136        H148   1.083       .  S
C137        C138   1.377       .  A
C137        H149   1.082       .  S
C138        H150   1.082       .  S
C139        C140   1.375       .  A
C139        H151   1.082       .  S
C140        H152   1.082       .  S
C141        C142   1.379       .  A
C141        H153   1.082       .  S
C142        H154   1.082       .  S
C143        C165   1.488       .  S
C144        C197   1.482       .  S
C145        C213   1.506       .  S
C146        C181   1.503       .  S
C157        C162   1.406       .  A
C157        C506   1.404       .  A
C158        C159   1.396       .  A
C158        C505   1.404       .  A
C158        H167   1.083       .  S
C159        C160   1.401       .  A
C159        H168   1.084       .  S
C160        C166   1.402       .  A
C160        C509   1.415   1_554  A
C161        C163   1.403       .  A
C161        C162   1.406       .  A
C161        C508   1.416       .  A
C162        H169   1.085       .  S
C163        C164   1.398       .  A
C163        H170   1.084       .  S
C164        C165   1.405       .  A
C164        H171   1.083       .  S
C165        C514   1.404       .  A
C166        C513   1.404   1_554  A
C166        H172   1.084       .  S
C173        C174   1.409       .  A
C173        C526   1.408       .  A
C174        C175   1.397       .  A
C174        H183   1.083       .  S
C175        C176   1.400       .  A
C175        H184   1.084       .  S
C176        C182   1.408       .  A
C176        C525   1.415       .  A
C177        C179   1.403       .  A
C177        C178   1.413       .  A
C177        C524   1.414   1_554  A
C178        C521   1.410   1_554  A
C178        H185   1.084       .  S
C179        C180   1.401       .  A
C179        H186   1.083       .  S
C180        C529   1.411       .  A
C180        H187   1.083       .  S
C181        C182   1.407       .  A
C181        C528   1.410       .  A
C182        H188   1.084       .  S
C189        C194   1.403       .  A
C189        C538   1.403       .  A
C190        C191   1.395       .  A
C190        C537   1.403       .  A
C190        H199   1.082       .  S
C191        C192   1.400       .  A
C191        H200   1.084       .  S
C192        C198   1.405       .  A
C192        C541   1.417   1_554  A
C193        C195   1.402       .  A
C193        C194   1.407       .  A
C193        C540   1.418       .  A
C194        H201   1.084       .  S
C195        C196   1.398       .  A
C195        H202   1.084       .  S
C196        C197   1.405       .  A
C196        H203   1.083       .  S
C197        C546   1.400       .  A
C198        C545   1.401   1_554  A
C198        H204   1.084       .  S
C205        C210   1.410       .  A
C205        C554   1.407       .  A
C206        C207   1.400       .  A
C206        C553   1.408       .  A
C206        H215   1.083       .  S
C207        C208   1.402       .  A
C207        H216   1.084       .  S
C208        C214   1.411       .  A
C208        C557   1.414   1_554  A
C209        C211   1.403       .  A
C209        C210   1.413       .  A
C209        C556   1.414       .  A
C210        H217   1.084       .  S
C211        C212   1.401       .  A
C211        H218   1.083       .  S
C212        C213   1.409       .  A
C212        H219   1.083       .  S
C213        C562   1.409       .  A
C214        C561   1.410   1_554  A
C214        H220   1.084       .  S
C221        C222   1.406       .  A
C221        C922   1.402       .  A
C222        C223   1.402       .  A
C222        H231   1.083       .  S
C223        C224   1.404       .  A
C223        H232   1.084       .  S
C224        C230   1.412       .  A
C224        C921   1.417       .  A
C225        C227   1.399       .  A
C225        C226   1.405       .  A
C225        C920   1.417   1_545  A
C226        C917   1.402   1_545  A
C226        H233   1.084       .  S
C227        C228   1.394       .  A
C227        H234   1.084       .  S
C228        C925   1.405       .  A
C228        H235   1.084       .  S
C229        C230   1.407       .  A
C229        C924   1.405       .  A
C230        H236   1.084       .  S
C237        C242   1.403       .  A
C237        C934   1.406       .  A
C238        C239   1.395       .  A
C238        C933   1.405       .  A
C238        H247   1.083       .  S
C239        C240   1.401       .  A
C239        H248   1.084       .  S
C240        C246   1.403       .  A
C240        C937   1.415   1_545  A
C241        C243   1.401       .  A
C241        C242   1.403       .  A
C241        C936   1.415       .  A
C242        H249   1.085       .  S
C243        C244   1.395       .  A
C243        H250   1.084       .  S
C244        C245   1.406       .  A
C244        H251   1.083       .  S
C245        C942   1.405       .  A
C246        C941   1.405   1_545  A
C246        H252   1.084       .  S
C253        C254   1.407       .  A
C253        C954   1.404       .  A
C254        C255   1.398       .  A
C254        H263   1.084       .  S
C255        C256   1.402       .  A
C255        H264   1.084       .  S
C256        C262   1.408       .  A
C256        C953   1.416       .  A
C257        C259   1.402       .  A
C257        C258   1.409       .  A
C257        C952   1.416   1_545  A
C258        C949   1.405   1_545  A
C258        H265   1.084       .  S
C259        C260   1.399       .  A
C259        H266   1.083       .  S
C260        C957   1.405   1_545  A
C260        H267   1.083       .  S
C261        C262   1.406       .  A
C261        C956   1.405       .  A
C262        H268   1.084       .  S
C269        C270   1.407       .  A
C269        C970   1.404       .  A
C270        C271   1.400       .  A
C270        H279   1.083       .  S
C271        C272   1.403       .  A
C271        H280   1.083       .  S
C272        C278   1.411       .  A
C272        C969   1.416       .  A
C273        C275   1.400       .  A
C273        C274   1.406       .  A
C273        C968   1.416   1_545  A
C274        C965   1.405   1_545  A
C274        H281   1.084       .  S
C275        C276   1.396       .  A
C275        H282   1.084       .  S
C276        C973   1.407       .  A
C276        H283   1.083       .  S
C277        C278   1.408       .  A
C277        C972   1.407       .  A
C278        H284   1.084       .  S
C285        C286   1.406       .  A
C285       C1682   1.401   1_455  A
C286        C287   1.397       .  A
C286        H295   1.084       .  S
C287        C288   1.401       .  A
C287        H296   1.084       .  S
C288        C294   1.405       .  A
C288       C1681   1.417   1_455  A
C289        C291   1.400       .  A
C289        C290   1.405       .  A
C289       C1680   1.417       .  A
C290       C1677   1.402       .  A
C290        H297   1.085       .  S
C291        C292   1.395       .  A
C291        H298   1.084       .  S
C292       C1685   1.405       .  A
C292        H299   1.083       .  S
C293        C294   1.402   1_655  A
C293       C1684   1.405       .  A
C294        H300   1.084       .  S
C301        C306   1.406   1_655  A
C301       C1694   1.407       .  A
C302        C303   1.398       .  A
C302       C1693   1.407       .  A
C302        H311   1.083       .  S
C303        C304   1.401       .  A
C303        H312   1.084       .  S
C304        C310   1.409       .  A
C304       C1697   1.416       .  A
C305        C307   1.402       .  A
C305        C306   1.409       .  A
C305       C1696   1.416   1_455  A
C306        H313   1.084       .  S
C307        C308   1.399       .  A
C307        H314   1.084       .  S
C308        C309   1.407       .  A
C308        H315   1.084       .  S
C309       C1702   1.405   1_455  A
C310       C1701   1.405       .  A
C310        H316   1.084       .  S
C317        C318   1.405       .  A
C317       C1714   1.402   1_455  A
C318        C319   1.396       .  A
C318        H327   1.082       .  S
C319        C320   1.401       .  A
C319        H328   1.084       .  S
C320        C326   1.404       .  A
C320       C1713   1.416   1_455  A
C321        C323   1.401       .  A
C321        C322   1.404       .  A
C321       C1712   1.416       .  A
C322       C1709   1.402       .  A
C322        H329   1.084       .  S
C323        C324   1.396       .  A
C323        H330   1.084       .  S
C324       C1717   1.405       .  A
C324        H331   1.083       .  S
C325        C326   1.403   1_655  A
C325       C1716   1.405       .  A
C326        H332   1.084       .  S
C333        C338   1.399   1_655  A
C333       C1726   1.405       .  A
C334        C335   1.397       .  A
C334       C1725   1.405       .  A
C334        H343   1.083       .  S
C335        C336   1.402       .  A
C335        H344   1.084       .  S
C336        C342   1.405       .  A
C336       C1729   1.417       .  A
C337        C339   1.399       .  A
C337        C338   1.401       .  A
C337       C1728   1.417   1_455  A
C338        H345   1.085       .  S
C339        C340   1.392       .  A
C339        H346   1.084       .  S
C340        C341   1.403       .  A
C340        H347   1.083       .  S
C341       C1734   1.402   1_455  A
C342       C1733   1.402       .  A
C342        H348   1.085       .  S
N349        C354   1.353       .  A
N349        C353   1.353       .  A
N349        H381   1.041   1_655  S
N350        C357   1.348   1_655  A
N350        C358   1.348       .  A
N351        C356   1.350       .  A
N351        C355   1.351       .  A
N351        H382   1.041   1_655  S
N352        C359   1.352       .  A
N352        C360   1.351       .  A
C353        C361   1.387       .  A
C353        C369   1.417       .  A
C354        C370   1.416       .  A
C354        C362   1.386       .  A
C355        C363   1.387       .  A
C355        C372   1.412       .  A
C356        C371   1.410       .  A
C356        C364   1.386       .  A
C357        C369   1.408   1_455  A
C357        C365   1.387       .  A
C358        C372   1.407       .  A
C358        C366   1.387   1_655  A
C359        C367   1.386   1_655  A
C359        C370   1.412       .  A
C360        C368   1.386   1_655  A
C360        C371   1.411       .  A
C361        C362   1.381       .  A
C361        H373   1.082       .  S
C362        H374   1.082       .  S
C363        C364   1.380       .  A
C363        H375   1.082       .  S
C364        H376   1.082       .  S
C365        C366   1.372       .  A
C365        H377   1.082       .  S
C366        H378   1.083       .  S
C367        C368   1.371       .  A
C367        H379   1.082       .  S
C368        H380   1.082       .  S
C369        C641   1.485       .  S
C370        C649   1.492       .  S
C371        C673   1.482       .  S
C372        C681   1.479       .  S
O383        C394   1.287       .  A
O384        C395   1.289       .  A
O385        C396   1.293       .  A
O385      Zr1783   2.437       .  S
O386        C397   1.298       .  A
O386       Zr391   2.469       .  S
O387        C397   1.290       .  A
O388        C396   1.298       .  A
O389        C395   1.294       .  A
O389       Zr391   2.451       .  S
O390        C394   1.294       .  A
O390      Zr1087   2.453       .  S
Zr391      O1777   2.436   1_455  S
Zr391      O1086   2.451       .  S
Zr391       O392   2.338       .  S
Zr391      O2481   2.350   1_455  S
Zr391      O1097   2.343       .  S
Zr391      O1791   2.351   1_455  S
O393      Zr2479   2.350       .  S
O393      Zr1463   2.340       .  S
O393       Zr768   2.353   1_545  S
C394        C689   1.466       .  S
C395        C665   1.470       .  S
C396        C625   1.486       .  S
C397        C601   1.481       .  S
H398        O399   0.964       .  S
O399      Zr1783   2.351       .  S
O399      Zr1462   2.336       .  S
H400        O401   0.964       .  S
O401      Zr1087   2.343       .  S
O401       Zr769   2.353       .  S
O402        C425   1.290       .  A
O402       Zr418   2.424   1_556  S
O403        C426   1.289       .  A
O403       Zr419   2.421   1_556  S
O404        C427   1.292       .  A
O404       Zr420   2.437       .  S
O405        C428   1.295       .  A
O405       Zr421   2.458   1_554  S
O406        C429   1.296       .  A
O406      Zr1117   2.459   1_554  S
O407        C430   1.293       .  A
O407      Zr1116   2.436   1_545  S
O408        C431   1.289       .  A
O408      Zr1814   2.419       .  S
O409        C432   1.290       .  A
O409       Zr422   2.427       .  S
O410        C431   1.298       .  A
O410       Zr420   2.471   1_556  S
O411        C432   1.293       .  A
O411       Zr421   2.441       .  S
O412        C427   1.292       .  A
O412      Zr1810   2.436       .  S
O413        C430   1.298       .  A
O413      Zr1811   2.471       .  S
O414        C429   1.296       .  A
O414       Zr419   2.454       .  S
O415        C428   1.288       .  A
O415       Zr418   2.420       .  S
O416        C425   1.298       .  A
O416       Zr422   2.469       .  S
O417        C426   1.295       .  A
O417      Zr1118   2.459       .  S
Zr418      O1804   2.436   1_455  S
Zr418      O1443   2.337   1_455  S
Zr418      O1816   2.335   1_454  S
Zr418       O436   2.339   1_554  S
Zr419      O1805   2.471   1_455  S
Zr419      O1437   2.340   1_455  S
Zr419       O423   2.341   1_554  S
Zr419      O1826   2.343   1_454  S
Zr420      O1103   2.431       .  S
Zr420       O741   2.352       .  S
Zr420       O424   2.341   1_554  S
Zr420      O1130   2.349   1_554  S
Zr421      O1102   2.460   1_556  S
Zr421       O749   2.352   1_556  S
Zr421      O1119   2.339       .  S
Zr421       O436   2.341       .  S
Zr422      O1800   2.420   1_455  S
Zr422      O1113   2.457       .  S
Zr422      O1119   2.339       .  S
Zr422      O1816   2.342   1_455  S
Zr422       O436   2.340       .  S
Zr422      O2522   2.344   1_455  S
O423      Zr1117   2.339       .  S
O423      Zr1118   2.342       .  S
O424      Zr1810   2.335   1_556  S
O424      Zr1814   2.342       .  S
C425        C657   1.480       .  S
C426        C633   1.474       .  S
C427        C505   1.473       .  S
C428        C537   1.470       .  S
C429        C553   1.493       .  S
C430        C521   1.492   1_554  S
C431        C577   1.476       .  S
C432        C585   1.472       .  S
H433        O434   0.965       .  S
O434      Zr1811   2.343   1_556  S
O434      Zr1116   2.347   1_546  S
O434      Zr2510   2.343       .  S
H435        O436   0.964       .  S
N437        C442   1.356       .  A
N437        C441   1.353       .  A
N437        H469   1.041       .  S
N438        C445   1.353       .  A
N438        C446   1.354       .  A
N439        C444   1.353       .  A
N439        C443   1.352       .  A
N439        H470   1.041       .  S
N440        C447   1.350       .  A
N440        C448   1.350       .  A
C441        C449   1.387       .  A
C441        C457   1.418       .  A
C442        C458   1.417       .  A
C442        C450   1.386       .  A
C443        C451   1.386       .  A
C443        C460   1.412       .  A
C444        C459   1.416       .  A
C444        C452   1.388       .  A
C445        C457   1.419       .  A
C445        C453   1.388       .  A
C446        C460   1.414       .  A
C446        C454   1.384       .  A
C447        C455   1.386       .  A
C447        C458   1.412       .  A
C448        C456   1.387       .  A
C448        C459   1.413       .  A
C449        C450   1.378       .  A
C449        H461   1.082       .  S
C450        H462   1.082       .  S
C451        C452   1.374       .  A
C451        H463   1.082       .  S
C452        H464   1.082       .  S
C453        C454   1.376       .  A
C453        H465   1.082       .  S
C454        H466   1.082       .  S
C455        C456   1.375       .  A
C455        H467   1.082       .  S
C456        H468   1.082       .  S
C457        C617   1.496       .  S
C458        C609   1.493       .  S
C459        C593   1.492       .  S
C460        C569   1.491       .  S
N471        C476   1.349       .  A
N471        C475   1.352       .  A
N471        H503   1.041       .  S
N472        C479   1.350       .  A
N472        C480   1.349       .  A
N473        C478   1.357   1_556  A
N473        C477   1.359   1_556  A
N473        H504   1.042       .  S
N474        C481   1.354       .  A
N474        C482   1.354       .  A
C475        C483   1.386   1_556  A
C475        C491   1.411       .  A
C476        C492   1.410       .  A
C476        C484   1.388   1_556  A
C477        C485   1.386       .  A
C477        C494   1.424   1_554  A
C478        C493   1.423   1_554  A
C478        C486   1.386       .  A
C479        C491   1.410       .  A
C479        C487   1.385       .  A
C480        C494   1.413       .  A
C480        C488   1.387       .  A
C481        C489   1.384       .  A
C481        C492   1.415       .  A
C482        C490   1.388       .  A
C482        C493   1.421       .  A
C483        C484   1.376       .  A
C483        H495   1.082       .  S
C484        H496   1.083       .  S
C485        C486   1.378       .  A
C485        H497   1.082       .  S
C486        H498   1.082       .  S
C487        C488   1.375       .  A
C487        H499   1.082       .  S
C488        H500   1.082       .  S
C489        C490   1.379       .  A
C489        H501   1.082       .  S
C490        H502   1.082       .  S
C491        C513   1.487       .  S
C492        C545   1.484       .  S
C493        C561   1.507       .  S
C494        C529   1.505   1_556  S
C505        C510   1.405   1_554  A
C506        C507   1.396       .  A
C506        H515   1.083       .  S
C507        C508   1.401       .  A
C507        H516   1.084       .  S
C508        C514   1.404       .  A
C509        C511   1.403       .  A
C509        C510   1.405       .  A
C510        H517   1.085       .  S
C511        C512   1.398       .  A
C511        H518   1.084       .  S
C512        C513   1.405       .  A
C512        H519   1.083       .  S
C514        H520   1.084       .  S
C521        C522   1.409       .  A
C522        C523   1.396       .  A
C522        H531   1.083       .  S
C523        C524   1.399       .  A
C523        H532   1.084       .  S
C524        C530   1.407       .  A
C525        C527   1.402       .  A
C525        C526   1.412       .  A
C526        H533   1.084       .  S
C527        C528   1.399       .  A
C527        H534   1.083       .  S
C528        H535   1.083       .  S
C529        C530   1.406   1_554  A
C530        H536   1.084       .  S
C537        C542   1.403   1_554  A
C538        C539   1.394       .  A
C538        H547   1.081       .  S
C539        C540   1.399       .  A
C539        H548   1.084       .  S
C540        C546   1.404       .  A
C541        C543   1.402       .  A
C541        C542   1.408       .  A
C542        H549   1.084       .  S
C543        C544   1.398       .  A
C543        H550   1.084       .  S
C544        C545   1.404       .  A
C544        H551   1.083       .  S
C546        H552   1.084       .  S
C553        C558   1.410   1_554  A
C554        C555   1.400       .  A
C554        H563   1.082       .  S
C555        C556   1.402       .  A
C555        H564   1.084       .  S
C556        C562   1.411       .  A
C557        C559   1.403       .  A
C557        C558   1.412       .  A
C558        H565   1.084       .  S
C559        C560   1.401       .  A
C559        H566   1.083       .  S
C560        C561   1.409       .  A
C560        H567   1.083       .  S
C562        H568   1.084       .  S
C569        C570   1.406       .  A
C569       C1270   1.402       .  A
C570        C571   1.401       .  A
C570        H579   1.083       .  S
C571        C572   1.403       .  A
C571        H580   1.084       .  S
C572        C578   1.411       .  A
C572       C1269   1.417       .  A
C573       C1268   1.417   1_545  A
C573        C575   1.399       .  A
C573        C574   1.406       .  A
C574       C1265   1.402   1_545  A
C574        H581   1.084       .  S
C575        C576   1.394       .  A
C575        H582   1.084       .  S
C576       C1273   1.405       .  A
C576        H583   1.084       .  S
C577       C1272   1.405       .  A
C577        C578   1.406       .  A
C578        H584   1.084       .  S
C585       C1282   1.404       .  A
C585        C590   1.404       .  A
C586       C1281   1.406       .  A
C586        C587   1.395       .  A
C586        H595   1.083       .  S
C587        C588   1.400       .  A
C587        H596   1.084       .  S
C588        C594   1.402       .  A
C588       C1285   1.415   1_545  A
C589       C1284   1.415       .  A
C589        C591   1.401       .  A
C589        C590   1.404       .  A
C590        H597   1.085       .  S
C591        C592   1.397       .  A
C591        H598   1.084       .  S
C592        C593   1.407       .  A
C592        H599   1.083       .  S
C593       C1290   1.405       .  A
C594       C1289   1.405   1_545  A
C594        H600   1.084       .  S
C601        C602   1.407       .  A
C601       C1302   1.405       .  A
C602        C603   1.398       .  A
C602        H611   1.084       .  S
C603        C604   1.401       .  A
C603        H612   1.084       .  S
C604        C610   1.408       .  A
C604       C1301   1.416       .  A
C605       C1300   1.417   1_545  A
C605        C607   1.401       .  A
C605        C606   1.408       .  A
C606       C1297   1.403   1_545  A
C606        H613   1.084       .  S
C607        C608   1.397       .  A
C607        H614   1.083       .  S
C608       C1305   1.405       .  A
C608        H615   1.083       .  S
C609       C1304   1.405       .  A
C609        C610   1.406       .  A
C610        H616   1.084       .  S
C617        C618   1.407       .  A
C617       C1318   1.405       .  A
C618        C619   1.400       .  A
C618        H627   1.083       .  S
C619        C620   1.403       .  A
C619        H628   1.083       .  S
C620        C626   1.412       .  A
C620       C1317   1.416       .  A
C621       C1316   1.416   1_545  A
C621        C623   1.399       .  A
C621        C622   1.405       .  A
C622       C1313   1.404   1_545  A
C622        H629   1.084       .  S
C623        C624   1.395       .  A
C623        H630   1.084       .  S
C624       C1321   1.407       .  A
C624        H631   1.083       .  S
C625       C1320   1.407       .  A
C625        C626   1.409       .  A
C626        H632   1.084       .  S
C633        C634   1.405       .  A
C633       C2030   1.403   1_455  A
C634        C635   1.396       .  A
C634        H643   1.084       .  S
C635        C636   1.400       .  A
C635        H644   1.084       .  S
C636        C642   1.404       .  A
C636       C2029   1.417   1_455  A
C637       C2028   1.417       .  A
C637        C639   1.401       .  A
C637        C638   1.407       .  A
C638       C2025   1.403       .  A
C638        H645   1.084       .  S
C639        C640   1.397       .  A
C639        H646   1.084       .  S
C640       C2033   1.405       .  A
C640        H647   1.083       .  S
C641       C2032   1.405       .  A
C641        C642   1.401   1_655  A
C642        H648   1.084       .  S
C649       C2042   1.406       .  A
C649        C654   1.405   1_655  A
C650       C2041   1.406       .  A
C650        C651   1.398       .  A
C650        H659   1.083       .  S
C651        C652   1.402       .  A
C651        H660   1.083       .  S
C652        C658   1.409       .  A
C652       C2045   1.416       .  A
C653       C2044   1.416   1_455  A
C653        C655   1.401       .  A
C653        C654   1.407       .  A
C654        H661   1.084       .  S
C655        C656   1.398       .  A
C655        H662   1.084       .  S
C656        C657   1.407       .  A
C656        H663   1.084       .  S
C657       C2050   1.404   1_455  A
C658       C2049   1.404       .  A
C658        H664   1.084       .  S
C665        C666   1.403       .  A
C665       C2062   1.403   1_455  A
C666        C667   1.394       .  A
C666        H675   1.081       .  S
C667        C668   1.400       .  A
C667        H676   1.084       .  S
C668        C674   1.402       .  A
C668       C2061   1.416   1_455  A
C669       C2060   1.416       .  A
C669        C671   1.402       .  A
C669        C670   1.405       .  A
C670       C2057   1.403       .  A
C670        H677   1.085       .  S
C671        C672   1.397       .  A
C671        H678   1.083       .  S
C672       C2065   1.404       .  A
C672        H679   1.083       .  S
C673       C2064   1.404       .  A
C673        C674   1.401   1_655  A
C674        H680   1.085       .  S
C681       C2074   1.405       .  A
C681        C686   1.398   1_655  A
C682       C2073   1.405       .  A
C682        C683   1.397       .  A
C682        H691   1.083       .  S
C683        C684   1.401       .  A
C683        H692   1.084       .  S
C684        C690   1.405       .  A
C684       C2077   1.418       .  A
C685       C2076   1.418   1_455  A
C685        C687   1.397       .  A
C685        C686   1.399       .  A
C686        H693   1.085       .  S
C687        C688   1.390       .  A
C687        H694   1.084       .  S
C688        C689   1.404       .  A
C688        H695   1.082       .  S
C689       C2082   1.402   1_455  A
C690       C2081   1.402       .  A
C690        H696   1.085       .  S
N697        C702   1.353       .  A
N697        C701   1.353       .  A
N697        H729   1.041   1_655  S
N698        C705   1.348   1_655  A
N698        C706   1.348       .  A
N699        C704   1.349       .  A
N699        C703   1.351       .  A
N699        H730   1.041   1_655  S
N700        C707   1.352       .  A
N700        C708   1.351       .  A
C701        C709   1.387       .  A
C701        C717   1.417       .  A
C702        C718   1.416       .  A
C702        C710   1.386       .  A
C703        C711   1.387       .  A
C703        C720   1.413       .  A
C704        C719   1.410       .  A
C704        C712   1.387       .  A
C705        C717   1.408   1_455  A
C705        C713   1.387       .  A
C706        C720   1.408       .  A
C706        C714   1.386   1_655  A
C707        C715   1.385   1_655  A
C707        C718   1.412       .  A
C708        C716   1.386   1_655  A
C708        C719   1.412       .  A
C709        C710   1.381       .  A
C709        H721   1.082       .  S
C710        H722   1.082       .  S
C711        C712   1.380       .  A
C711        H723   1.082       .  S
C712        H724   1.082       .  S
C713        C714   1.372       .  A
C713        H725   1.082       .  S
C714        H726   1.083       .  S
C715        C716   1.371       .  A
C715        H727   1.082       .  S
C716        H728   1.082       .  S
C717        C989   1.484       .  S
C718        C997   1.492       .  S
C719       C1021   1.482       .  S
C720       C1029   1.481       .  S
O731        C742   1.287       .  A
O731      Zr1115   2.410       .  S
O732        C743   1.288       .  A
O732      Zr1114   2.419       .  S
O733        C744   1.293   1_545  A
O733      Zr2131   2.436       .  S
O734        C745   1.298   1_545  A
O734       Zr739   2.469       .  S
O735        C745   1.290   1_545  A
O735      Zr1117   2.427   1_554  S
O736        C744   1.298       .  A
O736      Zr1116   2.467       .  S
O737        C743   1.294       .  A
O737       Zr739   2.453   1_565  S
O738        C742   1.295       .  A
Zr739      O2125   2.436   1_455  S
Zr739       O740   2.337   1_545  S
Zr739      O1437   2.351   1_455  S
Zr739      O2139   2.351   1_445  S
O740      Zr1114   2.331       .  S
O740      Zr1117   2.343   1_564  S
O741      Zr1435   2.350       .  S
O741      Zr2507   2.339       .  S
C742       C1037   1.467       .  S
C743       C1013   1.470       .  S
C744        C973   1.485   1_565  S
C745        C949   1.481       .  S
H746        O747   0.964       .  S
O747      Zr2131   2.351   1_565  S
O747      Zr2506   2.336       .  S
O747      Zr1116   2.349       .  S
H748        O749   0.964       .  S
O749      Zr1115   2.347       .  S
O750        C773   1.290       .  A
O750       Zr766   2.426       .  S
O751        C774   1.289       .  A
O751       Zr767   2.420       .  S
O752        C775   1.292       .  A
O752       Zr768   2.440       .  S
O753        C776   1.295       .  A
O753       Zr769   2.460   1_565  S
O754        C777   1.296       .  A
O755        C778   1.292       .  A
O756        C779   1.289   1_545  A
O756      Zr2162   2.418       .  S
O757        C780   1.291       .  A
O757       Zr770   2.430       .  S
O758        C779   1.298       .  A
O758       Zr768   2.473       .  S
O759        C780   1.293       .  A
O759       Zr769   2.441       .  S
O760        C775   1.291       .  A
O760      Zr2158   2.435       .  S
O761        C778   1.298       .  A
O761      Zr2159   2.472       .  S
O762        C777   1.296       .  A
O762       Zr767   2.455       .  S
O763        C776   1.288       .  A
O763       Zr766   2.418       .  S
O764        C773   1.297       .  A
O764       Zr770   2.468   1_565  S
O765        C774   1.296       .  A
Zr766      O1080   2.427       .  S
Zr766      O2152   2.434   1_455  S
Zr766      O1088   2.331       .  S
Zr766      O2487   2.337   1_455  S
Zr766      O2164   2.335   1_455  S
Zr766       O784   2.341       .  S
Zr767      O1079   2.414       .  S
Zr767      O2153   2.473   1_455  S
Zr767      O2481   2.339   1_455  S
Zr767      O1097   2.346       .  S
Zr767       O771   2.342       .  S
Zr767      O2174   2.344   1_455  S
Zr768      O1084   2.470       .  S
Zr768      O1095   2.349       .  S
Zr768       O772   2.341       .  S
Zr769      O1083   2.421       .  S
Zr769      O1088   2.341   1_545  S
Zr769       O784   2.339   1_545  S
Zr770      O2148   2.419   1_455  S
Zr770      O2164   2.343   1_445  S
Zr770       O784   2.340   1_545  S
Zr770      O1478   2.344   1_455  S
O772      Zr2158   2.335       .  S
O772      Zr2162   2.343   1_565  S
C773       C1005   1.480       .  S
C774        C981   1.473       .  S
C775        C853   1.474       .  S
C776        C885   1.471       .  S
C777        C901   1.492       .  S
C778        C869   1.491       .  S
C779        C925   1.477   1_565  S
C780        C933   1.473       .  S
H781        O782   0.965       .  S
O782      Zr2159   2.344       .  S
O782      Zr1466   2.344       .  S
H783        O784   0.964       .  S
N785        C790   1.356   1_565  A
N785        C789   1.353   1_565  A
N785        H817   1.041       .  S
N786        C793   1.353       .  A
N786        C794   1.354       .  A
N787        C792   1.353       .  A
N787        C791   1.352       .  A
N787        H818   1.041       .  S
N788        C795   1.350       .  A
N788        C796   1.351       .  A
C789        C797   1.387       .  A
C789        C805   1.418   1_545  A
C790        C806   1.417   1_545  A
C790        C798   1.386       .  A
C791        C799   1.386   1_565  A
C791        C808   1.412       .  A
C792        C807   1.416       .  A
C792        C800   1.388   1_565  A
C793        C805   1.419       .  A
C793        C801   1.388       .  A
C794        C808   1.414       .  A
C794        C802   1.384       .  A
C795        C803   1.386       .  A
C795        C806   1.412       .  A
C796        C804   1.387       .  A
C796        C807   1.414       .  A
C797        C798   1.377       .  A
C797        H809   1.082       .  S
C798        H810   1.082       .  S
C799        C800   1.374       .  A
C799        H811   1.082       .  S
C800        H812   1.082       .  S
C801        C802   1.376       .  A
C801        H813   1.082       .  S
C802        H814   1.082       .  S
C803        C804   1.375       .  A
C803        H815   1.082       .  S
C804        H816   1.082       .  S
C805        C965   1.496       .  S
C806        C957   1.494       .  S
C807        C941   1.493       .  S
C808        C917   1.491       .  S
N819        C824   1.349       .  A
N819        C823   1.352       .  A
N819        H851   1.041       .  S
N820        C827   1.350       .  A
N820        C828   1.349       .  A
N821        C826   1.356       .  A
N821        C825   1.359       .  A
N821        H852   1.042       .  S
N822        C829   1.354       .  A
N822        C830   1.354       .  A
C823        C831   1.387       .  A
C823        C839   1.412       .  A
C824        C840   1.410       .  A
C824        C832   1.388       .  A
C825        C833   1.387       .  A
C825        C842   1.424       .  A
C826        C841   1.422       .  A
C826        C834   1.386       .  A
C827        C839   1.410       .  A
C827        C835   1.385       .  A
C828        C842   1.412       .  A
C828        C836   1.387       .  A
C829        C837   1.385       .  A
C829        C840   1.415       .  A
C830        C838   1.388       .  A
C830        C841   1.421       .  A
C831        C832   1.376       .  A
C831        H843   1.082       .  S
C832        H844   1.083       .  S
C833        C834   1.378       .  A
C833        H845   1.082       .  S
C834        H846   1.082       .  S
C835        C836   1.375       .  A
C835        H847   1.082       .  S
C836        H848   1.082       .  S
C837        C838   1.379       .  A
C837        H849   1.082       .  S
C838        H850   1.082       .  S
C839        C861   1.488       .  S
C840        C893   1.484       .  S
C841        C909   1.507       .  S
C842        C877   1.505       .  S
C853       C1202   1.404       .  A
C853        C858   1.405       .  A
C854       C1201   1.403       .  A
C854        C855   1.396       .  A
C854        H863   1.083       .  S
C855        C856   1.401       .  A
C855        H864   1.083       .  S
C856        C862   1.404       .  A
C856       C1205   1.416   1_554  A
C857       C1204   1.415       .  A
C857        C859   1.402       .  A
C857        C858   1.405       .  A
C858        H865   1.085       .  S
C859        C860   1.398       .  A
C859        H866   1.084       .  S
C860        C861   1.405       .  A
C860        H867   1.083       .  S
C861       C1210   1.404       .  A
C862       C1209   1.404   1_554  A
C862        H868   1.084       .  S
C869        C870   1.409       .  A
C869       C1222   1.410       .  A
C870        C871   1.396       .  A
C870        H879   1.083       .  S
C871        C872   1.399       .  A
C871        H880   1.084       .  S
C872        C878   1.407       .  A
C872       C1221   1.414       .  A
C873       C1220   1.415   1_554  A
C873        C875   1.402       .  A
C873        C874   1.412       .  A
C874       C1217   1.408   1_554  A
C874        H881   1.084       .  S
C875        C876   1.399       .  A
C875        H882   1.083       .  S
C876       C1225   1.409       .  A
C876        H883   1.083       .  S
C877       C1224   1.411       .  A
C877        C878   1.406       .  A
C878        H884   1.084       .  S
C885       C1234   1.403       .  A
C885        C890   1.403       .  A
C886       C1233   1.403       .  A
C886        C887   1.395       .  A
C886        H895   1.081       .  S
C887        C888   1.399       .  A
C887        H896   1.084       .  S
C888        C894   1.404       .  A
C888       C1237   1.418   1_554  A
C889       C1236   1.418       .  A
C889        C891   1.402       .  A
C889        C890   1.408       .  A
C890        H897   1.084       .  S
C891        C892   1.398       .  A
C891        H898   1.084       .  S
C892        C893   1.405       .  A
C892        H899   1.083       .  S
C893       C1242   1.401       .  A
C894       C1241   1.400   1_554  A
C894        H900   1.084       .  S
C901       C1250   1.408       .  A
C901        C906   1.410       .  A
C902       C1249   1.407       .  A
C902        C903   1.400       .  A
C902        H911   1.082       .  S
C903        C904   1.402       .  A
C903        H912   1.084       .  S
C904        C910   1.411       .  A
C904       C1253   1.414   1_554  A
C905       C1252   1.414       .  A
C905        C907   1.403       .  A
C905        C906   1.412       .  A
C906        H913   1.084       .  S
C907        C908   1.401       .  A
C907        H914   1.084       .  S
C908        C909   1.409       .  A
C908        H915   1.083       .  S
C909       C1258   1.410       .  A
C910       C1257   1.410   1_554  A
C910        H916   1.084       .  S
C917        C918   1.407       .  A
C918        C919   1.401       .  A
C918        H927   1.083       .  S
C919        C920   1.403       .  A
C919        H928   1.084       .  S
C920        C926   1.412       .  A
C921        C923   1.399       .  A
C921        C922   1.406       .  A
C922        H929   1.084       .  S
C923        C924   1.395       .  A
C923        H930   1.084       .  S
C924        H931   1.084       .  S
C925        C926   1.406   1_545  A
C926        H932   1.084       .  S
C933        C938   1.405   1_545  A
C934        C935   1.396       .  A
C934        H943   1.083       .  S
C935        C936   1.401       .  A
C935        H944   1.084       .  S
C936        C942   1.403       .  A
C937        C939   1.401       .  A
C937        C938   1.405       .  A
C938        H945   1.085       .  S
C939        C940   1.397       .  A
C939        H946   1.084       .  S
C940        C941   1.407       .  A
C940        H947   1.083       .  S
C942        H948   1.084       .  S
C949        C950   1.407       .  A
C950        C951   1.398       .  A
C950        H959   1.084       .  S
C951        C952   1.401       .  A
C951        H960   1.084       .  S
C952        C958   1.408       .  A
C953        C955   1.401       .  A
C953        C954   1.409       .  A
C954        H961   1.084       .  S
C955        C956   1.398       .  A
C955        H962   1.083       .  S
C956        H963   1.083       .  S
C957        C958   1.406       .  A
C958        H964   1.084       .  S
C965        C966   1.407       .  A
C966        C967   1.400       .  A
C966        H975   1.083       .  S
C967        C968   1.403       .  A
C967        H976   1.083       .  S
C968        C974   1.411       .  A
C969        C971   1.399       .  A
C969        C970   1.405       .  A
C970        H977   1.084       .  S
C971        C972   1.395       .  A
C971        H978   1.084       .  S
C972        H979   1.083       .  S
C973        C974   1.408   1_545  A
C974        H980   1.084       .  S
C981        C982   1.405       .  A
C981       C2378   1.403   1_455  A
C982        C983   1.396       .  A
C982        H991   1.084       .  S
C983        C984   1.400       .  A
C983        H992   1.084       .  S
C984        C990   1.404       .  A
C984       C2377   1.417   1_455  A
C985       C2376   1.417       .  A
C985        C987   1.401       .  A
C985        C986   1.406       .  A
C986       C2373   1.403       .  A
C986        H993   1.084       .  S
C987        C988   1.396       .  A
C987        H994   1.084       .  S
C988       C2381   1.405       .  A
C988        H995   1.083       .  S
C989       C2380   1.405       .  A
C989        C990   1.401   1_655  A
C990        H996   1.084       .  S
C997       C2390   1.406       .  A
C997       C1002   1.405   1_655  A
C998       C2389   1.406       .  A
C998        C999   1.398       .  A
C998       H1007   1.083       .  S
C999       C1000   1.402       .  A
C999       H1008   1.083       .  S
C1000      C1006   1.409       .  A
C1000      C2393   1.416       .  A
C1001      C2392   1.416   1_455  A
C1001      C1003   1.401       .  A
C1001      C1002   1.408       .  A
C1002      H1009   1.084       .  S
C1003      C1004   1.398       .  A
C1003      H1010   1.084       .  S
C1004      C1005   1.406       .  A
C1004      H1011   1.084       .  S
C1005      C2398   1.404   1_455  A
C1006      C2397   1.404       .  A
C1006      H1012   1.084       .  S
C1013      C1014   1.404       .  A
C1013      C2410   1.402   1_455  A
C1014      C1015   1.394       .  A
C1014      H1023   1.080       .  S
C1015      C1016   1.400       .  A
C1015      H1024   1.084       .  S
C1016      C1022   1.402       .  A
C1016      C2409   1.416   1_455  A
C1017      C2408   1.416       .  A
C1017      C1019   1.401       .  A
C1017      C1018   1.404       .  A
C1018      C2405   1.402       .  A
C1018      H1025   1.084       .  S
C1019      C1020   1.396       .  A
C1019      H1026   1.083       .  S
C1020      C2413   1.404       .  A
C1020      H1027   1.083       .  S
C1021      C2412   1.404       .  A
C1021      C1022   1.401   1_655  A
C1022      H1028   1.085       .  S
C1029      C2422   1.405       .  A
C1029      C1034   1.398   1_655  A
C1030      C2421   1.405       .  A
C1030      C1031   1.397       .  A
C1030      H1039   1.083       .  S
C1031      C1032   1.402       .  A
C1031      H1040   1.084       .  S
C1032      C1038   1.406       .  A
C1032      C2425   1.418       .  A
C1033      C2424   1.418   1_455  A
C1033      C1035   1.398       .  A
C1033      C1034   1.400       .  A
C1034      H1041   1.085       .  S
C1035      C1036   1.391       .  A
C1035      H1042   1.084       .  S
C1036      C1037   1.404       .  A
C1036      H1043   1.083       .  S
C1037      C2430   1.402   1_455  A
C1038      C2429   1.402       .  A
C1038      H1044   1.085       .  S
N1045      C1050   1.354       .  A
N1045      C1049   1.353       .  A
N1045      H1077   1.040   1_655  S
N1046      C1053   1.349       .  A
N1046      C1054   1.349       .  A
N1047      C1052   1.351       .  A
N1047      C1051   1.352       .  A
N1047      H1078   1.040       .  S
N1048      C1055   1.353       .  A
N1048      C1056   1.353       .  A
C1049      C1057   1.387       .  A
C1049      C1065   1.418       .  A
C1050      C1066   1.417       .  A
C1050      C1058   1.386       .  A
C1051      C1059   1.387       .  A
C1051      C1068   1.414       .  A
C1052      C1067   1.413       .  A
C1052      C1060   1.387       .  A
C1053      C1065   1.411       .  A
C1053      C1061   1.387   1_655  A
C1054      C1068   1.409       .  A
C1054      C1062   1.386   1_655  A
C1055      C1063   1.385   1_655  A
C1055      C1066   1.413       .  A
C1056      C1064   1.386   1_655  A
C1056      C1067   1.413       .  A
C1057      C1058   1.381       .  A
C1057      H1069   1.082       .  S
C1058      H1070   1.082       .  S
C1059      C1060   1.381       .  A
C1059      H1071   1.082       .  S
C1060      H1072   1.082       .  S
C1061      C1062   1.371       .  A
C1061      H1073   1.082       .  S
C1062      H1074   1.083       .  S
C1063      C1064   1.369       .  A
C1063      H1075   1.082       .  S
C1064      H1076   1.082       .  S
C1065      C1337   1.486       .  S
C1066      C1345   1.496       .  S
C1067      C1369   1.487       .  S
C1068      C1377   1.481       .  S
O1079      C1090   1.288       .  A
O1080      C1091   1.289       .  A
O1081      C1092   1.293   1_545  A
O1081     Zr2479   2.435       .  S
O1082      C1093   1.298   1_545  A
O1082     Zr1087   2.468       .  S
O1083      C1093   1.289   1_545  A
O1084      C1092   1.298       .  A
O1085      C1091   1.294       .  A
O1085     Zr1087   2.451   1_565  S
O1086      C1090   1.294       .  A
Zr1087     O2473   2.435   1_455  S
Zr1087     O1088   2.338   1_545  S
Zr1087     O1785   2.350   1_455  S
Zr1087     O2487   2.353   1_445  S
O1089     Zr1783   2.350       .  S
O1089     Zr2159   2.339       .  S
C1090      C1385   1.465       .  S
C1091      C1361   1.473       .  S
C1092      C1321   1.486   1_565  S
C1093      C1297   1.478       .  S
H1094      O1095   0.964       .  S
O1095     Zr2479   2.353   1_565  S
O1095     Zr2158   2.336       .  S
H1096      O1097   0.964       .  S
O1098      C1121   1.289       .  A
O1098     Zr1114   2.421   1_556  S
O1099      C1122   1.289       .  A
O1099     Zr1115   2.422   1_556  S
O1100      C1123   1.292       .  A
O1100     Zr1116   2.438       .  S
O1101      C1124   1.294       .  A
O1101     Zr1117   2.455   1_564  S
O1102      C1125   1.296       .  A
O1103      C1126   1.292       .  A
O1104      C1127   1.289   1_545  A
O1104     Zr2510   2.419       .  S
O1105      C1128   1.289       .  A
O1105     Zr1118   2.419       .  S
O1106      C1127   1.298       .  A
O1106     Zr1116   2.472   1_556  S
O1107      C1128   1.294       .  A
O1107     Zr1117   2.448       .  S
O1108      C1123   1.293       .  A
O1108     Zr2506   2.445       .  S
O1109      C1126   1.299       .  A
O1109     Zr2507   2.474       .  S
O1110      C1125   1.295       .  A
O1110     Zr1115   2.452       .  S
O1111      C1124   1.290       .  A
O1111     Zr1114   2.426       .  S
O1112      C1121   1.298       .  A
O1112     Zr1118   2.472   1_565  S
O1113      C1122   1.295       .  A
Zr1114     O2500   2.445   1_455  S
Zr1114     O2139   2.336   1_455  S
Zr1114     O2512   2.335   1_454  S
Zr1114     O1132   2.342   1_554  S
Zr1115     O2501   2.474   1_455  S
Zr1115     O2133   2.339   1_455  S
Zr1115     O1119   2.340   1_554  S
Zr1115     O2522   2.340   1_454  S
Zr1116     O1120   2.342   1_554  S
Zr1117     O1132   2.343   1_545  S
Zr1118     O2496   2.419   1_455  S
Zr1118     O2512   2.341   1_445  S
Zr1118     O1132   2.343   1_545  S
Zr1118     O1826   2.343   1_455  S
O1120     Zr2506   2.335   1_556  S
O1120     Zr2510   2.341   1_565  S
C1121      C1353   1.481       .  S
C1122      C1329   1.473       .  S
C1123      C1201   1.475       .  S
C1124      C1233   1.472       .  S
C1125      C1249   1.491       .  S
C1126      C1217   1.489   1_554  S
C1127      C1273   1.478   1_565  S
C1128      C1281   1.472       .  S
H1129      O1130   0.964       .  S
O1130     Zr2507   2.340   1_556  S
O1130     Zr1814   2.344       .  S
H1131      O1132   0.964       .  S
N1133      C1138   1.356   1_565  A
N1133      C1137   1.352   1_565  A
N1133      H1165   1.041       .  S
N1134      C1141   1.353       .  A
N1134      C1142   1.355       .  A
N1135      C1140   1.352       .  A
N1135      C1139   1.352       .  A
N1135      H1166   1.040       .  S
N1136      C1143   1.350       .  A
N1136      C1144   1.350       .  A
C1137      C1145   1.388       .  A
C1137      C1153   1.417   1_545  A
C1138      C1154   1.416   1_545  A
C1138      C1146   1.386       .  A
C1139      C1147   1.386   1_565  A
C1139      C1156   1.412       .  A
C1140      C1155   1.416       .  A
C1140      C1148   1.389   1_565  A
C1141      C1153   1.420       .  A
C1141      C1149   1.388       .  A
C1142      C1156   1.415       .  A
C1142      C1150   1.384       .  A
C1143      C1151   1.385       .  A
C1143      C1154   1.410       .  A
C1144      C1152   1.387       .  A
C1144      C1155   1.413       .  A
C1145      C1146   1.378       .  A
C1145      H1157   1.082       .  S
C1146      H1158   1.082       .  S
C1147      C1148   1.374       .  A
C1147      H1159   1.082       .  S
C1148      H1160   1.082       .  S
C1149      C1150   1.377       .  A
C1149      H1161   1.082       .  S
C1150      H1162   1.082       .  S
C1151      C1152   1.374       .  A
C1151      H1163   1.082       .  S
C1152      H1164   1.082       .  S
C1153      C1313   1.495       .  S
C1154      C1305   1.492   1_565  S
C1155      C1289   1.490       .  S
C1156      C1265   1.492       .  S
N1167      C1172   1.348   1_556  A
N1167      C1171   1.352   1_556  A
N1167      H1199   1.041       .  S
N1168      C1175   1.351       .  A
N1168      C1176   1.348       .  A
N1169      C1174   1.356       .  A
N1169      C1173   1.358   1_556  A
N1169      H1200   1.042       .  S
N1170      C1177   1.354       .  A
N1170      C1178   1.354       .  A
C1171      C1179   1.386       .  A
C1171      C1187   1.410   1_554  A
C1172      C1188   1.410   1_554  A
C1172      C1180   1.389       .  A
C1173      C1181   1.387       .  A
C1173      C1190   1.423   1_554  A
C1174      C1189   1.421       .  A
C1174      C1182   1.386   1_556  A
C1175      C1187   1.410       .  A
C1175      C1183   1.385       .  A
C1176      C1190   1.413       .  A
C1176      C1184   1.387       .  A
C1177      C1185   1.385       .  A
C1177      C1188   1.416       .  A
C1178      C1186   1.388       .  A
C1178      C1189   1.421       .  A
C1179      C1180   1.376       .  A
C1179      H1191   1.082       .  S
C1180      H1192   1.083       .  S
C1181      C1182   1.377       .  A
C1181      H1193   1.082       .  S
C1182      H1194   1.082       .  S
C1183      C1184   1.375       .  A
C1183      H1195   1.082       .  S
C1184      H1196   1.082       .  S
C1185      C1186   1.379       .  A
C1185      H1197   1.082       .  S
C1186      H1198   1.082       .  S
C1187      C1209   1.488       .  S
C1188      C1241   1.483       .  S
C1189      C1257   1.507       .  S
C1190      C1225   1.502   1_556  S
C1201      C1206   1.406   1_554  A
C1202      C1203   1.396       .  A
C1202      H1211   1.083       .  S
C1203      C1204   1.401       .  A
C1203      H1212   1.084       .  S
C1204      C1210   1.403       .  A
C1205      C1207   1.403       .  A
C1205      C1206   1.407       .  A
C1206      H1213   1.085       .  S
C1207      C1208   1.398       .  A
C1207      H1214   1.084       .  S
C1208      C1209   1.404       .  A
C1208      H1215   1.083       .  S
C1210      H1216   1.084       .  S
C1217      C1218   1.409       .  A
C1218      C1219   1.397       .  A
C1218      H1227   1.083       .  S
C1219      C1220   1.400       .  A
C1219      H1228   1.084       .  S
C1220      C1226   1.407       .  A
C1221      C1223   1.402       .  A
C1221      C1222   1.413       .  A
C1222      H1229   1.084       .  S
C1223      C1224   1.401       .  A
C1223      H1230   1.083       .  S
C1224      H1231   1.083       .  S
C1225      C1226   1.407   1_554  A
C1226      H1232   1.084       .  S
C1233      C1238   1.403   1_554  A
C1234      C1235   1.395       .  A
C1234      H1243   1.082       .  S
C1235      C1236   1.400       .  A
C1235      H1244   1.084       .  S
C1236      C1242   1.405       .  A
C1237      C1239   1.402       .  A
C1237      C1238   1.408       .  A
C1238      H1245   1.084       .  S
C1239      C1240   1.398       .  A
C1239      H1246   1.084       .  S
C1240      C1241   1.405       .  A
C1240      H1247   1.083       .  S
C1242      H1248   1.084       .  S
C1249      C1254   1.410   1_554  A
C1250      C1251   1.400       .  A
C1250      H1259   1.083       .  S
C1251      C1252   1.402       .  A
C1251      H1260   1.084       .  S
C1252      C1258   1.411       .  A
C1253      C1255   1.403       .  A
C1253      C1254   1.413       .  A
C1254      H1261   1.084       .  S
C1255      C1256   1.401       .  A
C1255      H1262   1.084       .  S
C1256      C1257   1.409       .  A
C1256      H1263   1.083       .  S
C1258      H1264   1.084       .  S
C1265      C1266   1.407       .  A
C1266      C1267   1.401       .  A
C1266      H1275   1.083       .  S
C1267      C1268   1.404       .  A
C1267      H1276   1.084       .  S
C1268      C1274   1.412       .  A
C1269      C1271   1.399       .  A
C1269      C1270   1.405       .  A
C1270      H1277   1.084       .  S
C1271      C1272   1.394       .  A
C1271      H1278   1.084       .  S
C1272      H1279   1.084       .  S
C1273      C1274   1.407   1_545  A
C1274      H1280   1.084       .  S
C1281      C1286   1.403   1_545  A
C1282      C1283   1.395       .  A
C1282      H1291   1.083       .  S
C1283      C1284   1.400       .  A
C1283      H1292   1.084       .  S
C1284      C1290   1.402       .  A
C1285      C1287   1.400       .  A
C1285      C1286   1.402       .  A
C1286      H1293   1.085       .  S
C1287      C1288   1.395       .  A
C1287      H1294   1.084       .  S
C1288      C1289   1.406       .  A
C1288      H1295   1.083       .  S
C1290      H1296   1.084       .  S
C1297      C1298   1.407       .  A
C1298      C1299   1.398       .  A
C1298      H1307   1.084       .  S
C1299      C1300   1.401       .  A
C1299      H1308   1.084       .  S
C1300      C1306   1.408       .  A
C1301      C1303   1.402       .  A
C1301      C1302   1.409       .  A
C1302      H1309   1.084       .  S
C1303      C1304   1.398       .  A
C1303      H1310   1.083       .  S
C1304      H1311   1.083       .  S
C1305      C1306   1.406   1_545  A
C1306      H1312   1.084       .  S
C1313      C1314   1.407       .  A
C1314      C1315   1.400       .  A
C1314      H1323   1.083       .  S
C1315      C1316   1.403       .  A
C1315      H1324   1.083       .  S
C1316      C1322   1.412       .  A
C1317      C1319   1.400       .  A
C1317      C1318   1.407       .  A
C1318      H1325   1.084       .  S
C1319      C1320   1.396       .  A
C1319      H1326   1.084       .  S
C1320      H1327   1.083       .  S
C1321      C1322   1.409   1_545  A
C1322      H1328   1.084       .  S
C1329      C1330   1.406       .  A
C1329      C2726   1.402   1_455  A
C1330      C1331   1.397       .  A
C1330      H1339   1.084       .  S
C1331      C1332   1.401       .  A
C1331      H1340   1.084       .  S
C1332      C1338   1.405       .  A
C1332      C2725   1.417   1_455  A
C1333      C2724   1.417       .  A
C1333      C1335   1.400       .  A
C1333      C1334   1.405       .  A
C1334      C2721   1.402       .  A
C1334      H1341   1.085       .  S
C1335      C1336   1.395       .  A
C1335      H1342   1.084       .  S
C1336      C2729   1.405       .  A
C1336      H1343   1.083       .  S
C1337      C2728   1.405       .  A
C1337      C1338   1.403   1_655  A
C1338      H1344   1.084       .  S
C1345      C2738   1.407       .  A
C1345      C1350   1.406   1_655  A
C1346      C2737   1.407       .  A
C1346      C1347   1.398       .  A
C1346      H1355   1.083       .  S
C1347      C1348   1.401       .  A
C1347      H1356   1.084       .  S
C1348      C1354   1.409       .  A
C1348      C2741   1.416       .  A
C1349      C2740   1.416   1_455  A
C1349      C1351   1.401       .  A
C1349      C1350   1.408       .  A
C1350      H1357   1.084       .  S
C1351      C1352   1.398       .  A
C1351      H1358   1.084       .  S
C1352      C1353   1.407       .  A
C1352      H1359   1.084       .  S
C1353      C2746   1.404   1_455  A
C1354      C2745   1.404       .  A
C1354      H1360   1.084       .  S
C1361      C1362   1.405       .  A
C1361      C2758   1.403   1_455  A
C1362      C1363   1.396       .  A
C1362      H1371   1.082       .  S
C1363      C1364   1.401       .  A
C1363      H1372   1.084       .  S
C1364      C1370   1.404       .  A
C1364      C2757   1.416   1_455  A
C1365      C2756   1.416       .  A
C1365      C1367   1.401       .  A
C1365      C1366   1.405       .  A
C1366      C2753   1.403       .  A
C1366      H1373   1.084       .  S
C1367      C1368   1.396       .  A
C1367      H1374   1.084       .  S
C1368      C2761   1.405       .  A
C1368      H1375   1.083       .  S
C1369      C2760   1.405       .  A
C1369      C1370   1.403   1_655  A
C1370      H1376   1.084       .  S
C1377      C2770   1.405       .  A
C1377      C1382   1.399   1_655  A
C1378      C2769   1.405       .  A
C1378      C1379   1.398       .  A
C1378      H1387   1.083       .  S
C1379      C1380   1.402       .  A
C1379      H1388   1.084       .  S
C1380      C1386   1.405       .  A
C1380      C2773   1.417       .  A
C1381      C2772   1.417   1_455  A
C1381      C1383   1.399       .  A
C1381      C1382   1.401       .  A
C1382      H1389   1.085       .  S
C1383      C1384   1.392       .  A
C1383      H1390   1.084       .  S
C1384      C1385   1.403       .  A
C1384      H1391   1.083       .  S
C1385      C2778   1.402   1_455  A
C1386      C2777   1.402       .  A
C1386      H1392   1.085       .  S
N1393      C1398   1.354       .  A
N1393      C1397   1.353       .  A
N1393      H1425   1.040       .  S
N1394      C1401   1.349       .  A
N1394      C1402   1.350       .  A
N1395      C1400   1.350       .  A
N1395      C1399   1.352       .  A
N1395      H1426   1.040       .  S
N1396      C1403   1.353       .  A
N1396      C1404   1.353       .  A
C1397      C1405   1.388       .  A
C1397      C1413   1.418       .  A
C1398      C1414   1.418       .  A
C1398      C1406   1.386       .  A
C1399      C1407   1.388       .  A
C1399      C1416   1.414       .  A
C1400      C1415   1.412       .  A
C1400      C1408   1.387       .  A
C1401      C1413   1.411       .  A
C1401      C1409   1.387       .  A
C1402      C1416   1.410       .  A
C1402      C1410   1.386       .  A
C1403      C1411   1.385       .  A
C1403      C1414   1.414       .  A
C1404      C1412   1.386       .  A
C1404      C1415   1.414       .  A
C1405      C1406   1.381       .  A
C1405      H1417   1.082       .  S
C1406      H1418   1.082       .  S
C1407      C1408   1.381       .  A
C1407      H1419   1.082       .  S
C1408      H1420   1.082       .  S
C1409      C1410   1.371       .  A
C1409      H1421   1.082       .  S
C1410      H1422   1.083       .  S
C1411      C1412   1.369       .  A
C1411      H1423   1.082       .  S
C1412      H1424   1.082       .  S
C1413      C1685   1.486       .  S
C1414      C1693   1.496       .  S
C1415      C1717   1.486       .  S
C1416      C1725   1.482       .  S
O1427      C1438   1.287       .  A
O1427     Zr1811   2.413       .  S
O1428      C1439   1.289       .  A
O1428     Zr1810   2.423       .  S
O1429      C1440   1.293       .  A
O1430      C1441   1.298       .  A
O1430     Zr1435   2.467       .  S
O1431      C1441   1.290       .  A
O1431     Zr1813   2.424   1_554  S
O1432      C1440   1.298       .  A
O1432     Zr1812   2.467       .  S
O1433      C1439   1.295       .  A
O1433     Zr1435   2.454       .  S
O1434      C1438   1.294       .  A
O1434     Zr2131   2.451       .  S
Zr1435     O2130   2.455       .  S
Zr1435     O1436   2.338       .  S
Zr1435     O2141   2.343       .  S
O1436     Zr1810   2.331       .  S
O1436     Zr1813   2.341   1_554  S
O1437     Zr2508   2.353   1_545  S
C1438      C1733   1.465       .  S
C1439      C1709   1.473       .  S
C1440      C1669   1.485       .  S
C1441      C1645   1.479       .  S
H1442      O1443   0.964       .  S
O1443     Zr1812   2.350       .  S
H1444      O1445   0.964       .  S
O1445     Zr2131   2.343       .  S
O1445     Zr1811   2.345       .  S
O1445     Zr2509   2.351   1_554  S
O1446      C1469   1.290       .  A
O1446     Zr1462   2.424       .  S
O1447      C1470   1.289       .  A
O1447     Zr1463   2.420       .  S
O1448      C1471   1.292       .  A
O1448     Zr1464   2.438       .  S
O1449      C1472   1.294       .  A
O1449     Zr1465   2.455       .  S
O1450      C1473   1.296       .  A
O1450     Zr2161   2.459       .  S
O1451      C1474   1.292       .  A
O1451     Zr2160   2.432   1_545  S
O1452      C1475   1.289       .  A
O1453      C1476   1.290       .  A
O1453     Zr1466   2.423       .  S
O1454      C1475   1.298       .  A
O1454     Zr1464   2.473       .  S
O1455      C1476   1.294       .  A
O1455     Zr1465   2.449       .  S
O1456      C1471   1.293       .  A
O1457      C1474   1.299       .  A
O1458      C1473   1.296       .  A
O1458     Zr1463   2.456       .  S
O1459      C1472   1.289       .  A
O1459     Zr1462   2.424       .  S
O1460      C1469   1.298       .  A
O1460     Zr1466   2.473       .  S
O1461      C1470   1.295       .  A
O1461     Zr2162   2.459       .  S
Zr1462     O1776   2.422       .  S
Zr1462     O1784   2.332       .  S
Zr1462     O1480   2.342       .  S
Zr1463     O1775   2.408       .  S
Zr1463     O1793   2.347       .  S
Zr1463     O1467   2.341       .  S
Zr1464     O1780   2.469       .  S
Zr1464     O2147   2.433       .  S
Zr1464     O2481   2.353       .  S
Zr1464     O1791   2.347       .  S
Zr1464     O1468   2.342       .  S
Zr1464     O2174   2.349       .  S
Zr1465     O1779   2.425       .  S
Zr1465     O2146   2.458       .  S
Zr1465     O1784   2.343       .  S
Zr1465     O2489   2.352       .  S
Zr1465     O2163   2.339       .  S
Zr1465     O1480   2.342       .  S
Zr1466     O2157   2.460       .  S
Zr1466     O2163   2.341       .  S
Zr1466     O1480   2.343       .  S
O1467     Zr2161   2.339       .  S
O1467     Zr2162   2.338       .  S
C1469      C1701   1.482       .  S
C1470      C1677   1.473       .  S
C1471      C1549   1.475       .  S
C1472      C1581   1.471       .  S
C1473      C1597   1.492       .  S
C1474      C1565   1.490       .  S
C1475      C1621   1.478       .  S
C1476      C1629   1.474       .  S
H1477      O1478   0.964       .  S
O1478     Zr2160   2.351   1_545  S
H1479      O1480   0.964       .  S
N1481      C1486   1.356       .  A
N1481      C1485   1.352       .  A
N1481      H1513   1.041       .  S
N1482      C1489   1.352       .  A
N1482      C1490   1.354       .  A
N1483      C1488   1.352       .  A
N1483      C1487   1.353       .  A
N1483      H1514   1.041       .  S
N1484      C1491   1.350       .  A
N1484      C1492   1.350       .  A
C1485      C1493   1.388       .  A
C1485      C1501   1.417       .  A
C1486      C1502   1.416       .  A
C1486      C1494   1.386       .  A
C1487      C1495   1.386       .  A
C1487      C1504   1.412       .  A
C1488      C1503   1.416       .  A
C1488      C1496   1.389       .  A
C1489      C1501   1.419       .  A
C1489      C1497   1.388       .  A
C1490      C1504   1.414       .  A
C1490      C1498   1.384       .  A
C1491      C1499   1.385       .  A
C1491      C1502   1.411       .  A
C1492      C1500   1.387       .  A
C1492      C1503   1.413       .  A
C1493      C1494   1.378       .  A
C1493      H1505   1.082       .  S
C1494      H1506   1.082       .  S
C1495      C1496   1.375       .  A
C1495      H1507   1.082       .  S
C1496      H1508   1.082       .  S
C1497      C1498   1.377       .  A
C1497      H1509   1.082       .  S
C1498      H1510   1.082       .  S
C1499      C1500   1.375       .  A
C1499      H1511   1.082       .  S
C1500      H1512   1.082       .  S
C1501      C1661   1.493       .  S
C1502      C1653   1.493       .  S
C1503      C1637   1.491       .  S
C1504      C1613   1.491       .  S
N1515      C1520   1.348       .  A
N1515      C1519   1.352       .  A
N1515      H1547   1.041       .  S
N1516      C1523   1.351       .  A
N1516      C1524   1.349       .  A
N1517      C1522   1.356       .  A
N1517      C1521   1.358       .  A
N1517      H1548   1.042       .  S
N1518      C1525   1.353       .  A
N1518      C1526   1.354       .  A
C1519      C1527   1.386       .  A
C1519      C1535   1.411       .  A
C1520      C1536   1.410       .  A
C1520      C1528   1.388       .  A
C1521      C1529   1.387       .  A
C1521      C1538   1.423       .  A
C1522      C1537   1.421       .  A
C1522      C1530   1.386       .  A
C1523      C1535   1.410       .  A
C1523      C1531   1.385       .  A
C1524      C1538   1.413       .  A
C1524      C1532   1.387       .  A
C1525      C1533   1.385       .  A
C1525      C1536   1.416       .  A
C1526      C1534   1.388       .  A
C1526      C1537   1.420       .  A
C1527      C1528   1.376       .  A
C1527      H1539   1.082       .  S
C1528      H1540   1.083       .  S
C1529      C1530   1.377       .  A
C1529      H1541   1.082       .  S
C1530      H1542   1.082       .  S
C1531      C1532   1.375       .  A
C1531      H1543   1.082       .  S
C1532      H1544   1.082       .  S
C1533      C1534   1.379       .  A
C1533      H1545   1.082       .  S
C1534      H1546   1.082       .  S
C1535      C1557   1.488       .  S
C1536      C1589   1.482       .  S
C1537      C1605   1.506       .  S
C1538      C1573   1.503       .  S
C1549      C1898   1.404       .  A
C1549      C1554   1.406       .  A
C1550      C1897   1.404       .  A
C1550      C1551   1.396       .  A
C1550      H1559   1.083       .  S
C1551      C1552   1.401       .  A
C1551      H1560   1.084       .  S
C1552      C1558   1.402       .  A
C1552      C1901   1.415   1_554  A
C1553      C1900   1.416       .  A
C1553      C1555   1.403       .  A
C1553      C1554   1.406       .  A
C1554      H1561   1.085       .  S
C1555      C1556   1.398       .  A
C1555      H1562   1.084       .  S
C1556      C1557   1.405       .  A
C1556      H1563   1.083       .  S
C1557      C1906   1.404       .  A
C1558      C1905   1.404   1_554  A
C1558      H1564   1.084       .  S
C1565      C1566   1.409       .  A
C1565      C1918   1.408       .  A
C1566      C1567   1.397       .  A
C1566      H1575   1.083       .  S
C1567      C1568   1.400       .  A
C1567      H1576   1.084       .  S
C1568      C1574   1.408       .  A
C1568      C1917   1.415       .  A
C1569      C1916   1.414   1_554  A
C1569      C1571   1.403       .  A
C1569      C1570   1.413       .  A
C1570      C1913   1.410   1_554  A
C1570      H1577   1.084       .  S
C1571      C1572   1.401       .  A
C1571      H1578   1.083       .  S
C1572      C1921   1.411       .  A
C1572      H1579   1.083       .  S
C1573      C1920   1.410       .  A
C1573      C1574   1.407       .  A
C1574      H1580   1.084       .  S
C1581      C1930   1.403       .  A
C1581      C1586   1.403       .  A
C1582      C1929   1.403       .  A
C1582      C1583   1.395       .  A
C1582      H1591   1.082       .  S
C1583      C1584   1.400       .  A
C1583      H1592   1.084       .  S
C1584      C1590   1.405       .  A
C1584      C1933   1.417   1_554  A
C1585      C1932   1.418       .  A
C1585      C1587   1.402       .  A
C1585      C1586   1.407       .  A
C1586      H1593   1.084       .  S
C1587      C1588   1.398       .  A
C1587      H1594   1.084       .  S
C1588      C1589   1.405       .  A
C1588      H1595   1.083       .  S
C1589      C1938   1.400       .  A
C1590      C1937   1.401   1_554  A
C1590      H1596   1.084       .  S
C1597      C1946   1.407       .  A
C1597      C1602   1.410       .  A
C1598      C1945   1.408       .  A
C1598      C1599   1.400       .  A
C1598      H1607   1.083       .  S
C1599      C1600   1.402       .  A
C1599      H1608   1.084       .  S
C1600      C1606   1.411       .  A
C1600      C1949   1.414   1_554  A
C1601      C1948   1.414       .  A
C1601      C1603   1.403       .  A
C1601      C1602   1.413       .  A
C1602      H1609   1.084       .  S
C1603      C1604   1.401       .  A
C1603      H1610   1.083       .  S
C1604      C1605   1.409       .  A
C1604      H1611   1.083       .  S
C1605      C1954   1.409       .  A
C1606      C1953   1.410   1_554  A
C1606      H1612   1.084       .  S
C1613      C1614   1.406       .  A
C1613      C2314   1.402       .  A
C1614      C1615   1.402       .  A
C1614      H1623   1.083       .  S
C1615      C1616   1.404       .  A
C1615      H1624   1.084       .  S
C1616      C1622   1.413       .  A
C1616      C2313   1.417       .  A
C1617      C2312   1.417   1_545  A
C1617      C1619   1.399       .  A
C1617      C1618   1.405       .  A
C1618      C2309   1.402   1_545  A
C1618      H1625   1.084       .  S
C1619      C1620   1.394       .  A
C1619      H1626   1.084       .  S
C1620      C2317   1.405       .  A
C1620      H1627   1.084       .  S
C1621      C2316   1.405       .  A
C1621      C1622   1.407       .  A
C1622      H1628   1.084       .  S
C1629      C2326   1.406       .  A
C1629      C1634   1.403       .  A
C1630      C2325   1.405       .  A
C1630      C1631   1.395       .  A
C1630      H1639   1.083       .  S
C1631      C1632   1.401       .  A
C1631      H1640   1.084       .  S
C1632      C1638   1.403       .  A
C1632      C2329   1.415   1_545  A
C1633      C2328   1.415       .  A
C1633      C1635   1.401       .  A
C1633      C1634   1.403       .  A
C1634      H1641   1.085       .  S
C1635      C1636   1.395       .  A
C1635      H1642   1.084       .  S
C1636      C1637   1.406       .  A
C1636      H1643   1.083       .  S
C1637      C2334   1.405       .  A
C1638      C2333   1.405   1_545  A
C1638      H1644   1.084       .  S
C1645      C1646   1.407       .  A
C1645      C2346   1.404       .  A
C1646      C1647   1.398       .  A
C1646      H1655   1.084       .  S
C1647      C1648   1.402       .  A
C1647      H1656   1.084       .  S
C1648      C1654   1.408       .  A
C1648      C2345   1.416       .  A
C1649      C2344   1.416   1_545  A
C1649      C1651   1.402       .  A
C1649      C1650   1.409       .  A
C1650      C2341   1.405   1_545  A
C1650      H1657   1.084       .  S
C1651      C1652   1.398       .  A
C1651      H1658   1.083       .  S
C1652      C2349   1.405   1_545  A
C1652      H1659   1.083       .  S
C1653      C2348   1.405       .  A
C1653      C1654   1.406       .  A
C1654      H1660   1.084       .  S
C1661      C1662   1.407       .  A
C1661      C2362   1.404       .  A
C1662      C1663   1.400       .  A
C1662      H1671   1.083       .  S
C1663      C1664   1.403       .  A
C1663      H1672   1.083       .  S
C1664      C1670   1.411       .  A
C1664      C2361   1.416       .  A
C1665      C2360   1.416   1_545  A
C1665      C1667   1.400       .  A
C1665      C1666   1.406       .  A
C1666      C2357   1.405   1_545  A
C1666      H1673   1.084       .  S
C1667      C1668   1.396       .  A
C1667      H1674   1.084       .  S
C1668      C2365   1.407       .  A
C1668      H1675   1.083       .  S
C1669      C2364   1.407       .  A
C1669      C1670   1.408       .  A
C1670      H1676   1.084       .  S
C1677      C1678   1.406       .  A
C1678      C1679   1.397       .  A
C1678      H1687   1.084       .  S
C1679      C1680   1.401       .  A
C1679      H1688   1.084       .  S
C1680      C1686   1.405       .  A
C1681      C1683   1.400       .  A
C1681      C1682   1.405       .  A
C1682      H1689   1.085       .  S
C1683      C1684   1.395       .  A
C1683      H1690   1.084       .  S
C1684      H1691   1.083       .  S
C1685      C1686   1.403       .  A
C1686      H1692   1.084       .  S
C1693      C1698   1.406       .  A
C1694      C1695   1.398       .  A
C1694      H1703   1.083       .  S
C1695      C1696   1.401       .  A
C1695      H1704   1.084       .  S
C1696      C1702   1.409       .  A
C1697      C1699   1.402       .  A
C1697      C1698   1.409       .  A
C1698      H1705   1.084       .  S
C1699      C1700   1.399       .  A
C1699      H1706   1.084       .  S
C1700      C1701   1.407       .  A
C1700      H1707   1.084       .  S
C1702      H1708   1.084       .  S
C1709      C1710   1.405       .  A
C1710      C1711   1.396       .  A
C1710      H1719   1.082       .  S
C1711      C1712   1.401       .  A
C1711      H1720   1.084       .  S
C1712      C1718   1.404       .  A
C1713      C1715   1.401       .  A
C1713      C1714   1.404       .  A
C1714      H1721   1.084       .  S
C1715      C1716   1.396       .  A
C1715      H1722   1.084       .  S
C1716      H1723   1.083       .  S
C1717      C1718   1.403       .  A
C1718      H1724   1.084       .  S
C1725      C1730   1.399       .  A
C1726      C1727   1.397       .  A
C1726      H1735   1.083       .  S
C1727      C1728   1.402       .  A
C1727      H1736   1.084       .  S
C1728      C1734   1.405       .  A
C1729      C1731   1.399       .  A
C1729      C1730   1.401       .  A
C1730      H1737   1.085       .  S
C1731      C1732   1.392       .  A
C1731      H1738   1.084       .  S
C1732      C1733   1.403       .  A
C1732      H1739   1.083       .  S
C1734      H1740   1.085       .  S
N1741      C1746   1.353       .  A
N1741      C1745   1.353       .  A
N1741      H1773   1.041       .  S
N1742      C1749   1.348       .  A
N1742      C1750   1.348       .  A
N1743      C1748   1.350       .  A
N1743      C1747   1.351       .  A
N1743      H1774   1.041       .  S
N1744      C1751   1.352       .  A
N1744      C1752   1.351       .  A
C1745      C1753   1.387       .  A
C1745      C1761   1.417       .  A
C1746      C1762   1.416       .  A
C1746      C1754   1.386       .  A
C1747      C1755   1.387       .  A
C1747      C1764   1.412       .  A
C1748      C1763   1.410       .  A
C1748      C1756   1.386       .  A
C1749      C1761   1.408       .  A
C1749      C1757   1.387       .  A
C1750      C1764   1.407       .  A
C1750      C1758   1.387       .  A
C1751      C1759   1.386       .  A
C1751      C1762   1.412       .  A
C1752      C1760   1.386       .  A
C1752      C1763   1.411       .  A
C1753      C1754   1.381       .  A
C1753      H1765   1.082       .  S
C1754      H1766   1.082       .  S
C1755      C1756   1.380       .  A
C1755      H1767   1.082       .  S
C1756      H1768   1.082       .  S
C1757      C1758   1.372       .  A
C1757      H1769   1.082       .  S
C1758      H1770   1.083       .  S
C1759      C1760   1.371       .  A
C1759      H1771   1.082       .  S
C1760      H1772   1.082       .  S
C1761      C2033   1.485       .  S
C1762      C2041   1.492       .  S
C1763      C2065   1.482       .  S
C1764      C2073   1.479       .  S
O1775      C1786   1.287       .  A
O1776      C1787   1.289       .  A
O1777      C1788   1.293       .  A
O1778      C1789   1.298       .  A
O1778     Zr1783   2.469       .  S
O1779      C1789   1.290       .  A
O1780      C1788   1.298       .  A
O1781      C1787   1.294       .  A
O1781     Zr1783   2.451       .  S
O1782      C1786   1.294       .  A
O1782     Zr2479   2.453       .  S
Zr1783     O2478   2.450       .  S
Zr1783     O1784   2.338       .  S
Zr1783     O2489   2.343       .  S
O1785     Zr2160   2.353   1_545  S
C1786      C2081   1.466       .  S
C1787      C2057   1.470       .  S
C1788      C2017   1.486       .  S
C1789      C1993   1.481       .  S
H1790      O1791   0.964       .  S
H1792      O1793   0.964       .  S
O1793     Zr2479   2.343       .  S
O1793     Zr2161   2.353       .  S
O1794      C1817   1.290       .  A
O1794     Zr1810   2.424   1_556  S
O1795      C1818   1.289       .  A
O1795     Zr1811   2.421   1_556  S
O1796      C1819   1.292       .  A
O1796     Zr1812   2.437       .  S
O1797      C1820   1.294       .  A
O1797     Zr1813   2.458   1_554  S
O1798      C1821   1.296       .  A
O1798     Zr2509   2.459   1_554  S
O1799      C1822   1.293       .  A
O1799     Zr2508   2.436   1_545  S
O1800      C1823   1.289       .  A
O1801      C1824   1.291       .  A
O1801     Zr1814   2.427       .  S
O1802      C1823   1.298       .  A
O1802     Zr1812   2.471   1_556  S
O1803      C1824   1.293       .  A
O1803     Zr1813   2.442       .  S
O1804      C1819   1.292       .  A
O1805      C1822   1.298       .  A
O1806      C1821   1.295       .  A
O1806     Zr1811   2.454       .  S
O1807      C1820   1.288       .  A
O1807     Zr1810   2.420       .  S
O1808      C1817   1.298       .  A
O1808     Zr1814   2.470       .  S
O1809      C1818   1.296       .  A
O1809     Zr2510   2.460       .  S
Zr1810     O1828   2.340   1_554  S
Zr1811     O1815   2.341   1_554  S
Zr1812     O2495   2.431       .  S
Zr1812     O2133   2.352       .  S
Zr1812     O1816   2.341   1_554  S
Zr1812     O2522   2.349   1_554  S
Zr1813     O2494   2.460   1_556  S
Zr1813     O2141   2.352   1_556  S
Zr1813     O2511   2.339       .  S
Zr1813     O1828   2.341       .  S
Zr1814     O2505   2.458       .  S
Zr1814     O2511   2.339       .  S
Zr1814     O1828   2.340       .  S
O1815     Zr2509   2.339       .  S
O1815     Zr2510   2.342       .  S
C1817      C2049   1.480       .  S
C1818      C2025   1.474       .  S
C1819      C1897   1.473       .  S
C1820      C1929   1.470       .  S
C1821      C1945   1.493       .  S
C1822      C1913   1.492   1_554  S
C1823      C1969   1.477       .  S
C1824      C1977   1.472       .  S
H1825      O1826   0.965       .  S
O1826     Zr2508   2.347   1_546  S
H1827      O1828   0.964       .  S
N1829      C1834   1.356       .  A
N1829      C1833   1.353       .  A
N1829      H1861   1.041       .  S
N1830      C1837   1.353       .  A
N1830      C1838   1.355       .  A
N1831      C1836   1.353       .  A
N1831      C1835   1.352       .  A
N1831      H1862   1.041       .  S
N1832      C1839   1.350       .  A
N1832      C1840   1.350       .  A
C1833      C1841   1.387       .  A
C1833      C1849   1.417       .  A
C1834      C1850   1.417       .  A
C1834      C1842   1.386       .  A
C1835      C1843   1.386       .  A
C1835      C1852   1.412       .  A
C1836      C1851   1.416       .  A
C1836      C1844   1.388       .  A
C1837      C1849   1.419       .  A
C1837      C1845   1.388       .  A
C1838      C1852   1.414       .  A
C1838      C1846   1.384       .  A
C1839      C1847   1.386       .  A
C1839      C1850   1.412       .  A
C1840      C1848   1.387       .  A
C1840      C1851   1.413       .  A
C1841      C1842   1.378       .  A
C1841      H1853   1.082       .  S
C1842      H1854   1.082       .  S
C1843      C1844   1.374       .  A
C1843      H1855   1.082       .  S
C1844      H1856   1.082       .  S
C1845      C1846   1.376       .  A
C1845      H1857   1.082       .  S
C1846      H1858   1.082       .  S
C1847      C1848   1.375       .  A
C1847      H1859   1.082       .  S
C1848      H1860   1.082       .  S
C1849      C2009   1.496       .  S
C1850      C2001   1.493       .  S
C1851      C1985   1.492       .  S
C1852      C1961   1.491       .  S
N1863      C1868   1.349       .  A
N1863      C1867   1.352       .  A
N1863      H1895   1.041       .  S
N1864      C1871   1.350       .  A
N1864      C1872   1.349       .  A
N1865      C1870   1.357   1_556  A
N1865      C1869   1.359   1_556  A
N1865      H1896   1.042       .  S
N1866      C1873   1.354       .  A
N1866      C1874   1.354       .  A
C1867      C1875   1.386   1_556  A
C1867      C1883   1.411       .  A
C1868      C1884   1.410       .  A
C1868      C1876   1.388   1_556  A
C1869      C1877   1.386       .  A
C1869      C1886   1.424   1_554  A
C1870      C1885   1.423   1_554  A
C1870      C1878   1.386       .  A
C1871      C1883   1.410       .  A
C1871      C1879   1.385       .  A
C1872      C1886   1.413       .  A
C1872      C1880   1.387       .  A
C1873      C1881   1.384       .  A
C1873      C1884   1.415       .  A
C1874      C1882   1.388       .  A
C1874      C1885   1.421       .  A
C1875      C1876   1.376       .  A
C1875      H1887   1.082       .  S
C1876      H1888   1.083       .  S
C1877      C1878   1.378       .  A
C1877      H1889   1.082       .  S
C1878      H1890   1.082       .  S
C1879      C1880   1.375       .  A
C1879      H1891   1.082       .  S
C1880      H1892   1.082       .  S
C1881      C1882   1.379       .  A
C1881      H1893   1.082       .  S
C1882      H1894   1.082       .  S
C1883      C1905   1.487       .  S
C1884      C1937   1.484       .  S
C1885      C1953   1.507       .  S
C1886      C1921   1.505   1_556  S
C1897      C1902   1.405   1_554  A
C1898      C1899   1.396       .  A
C1898      H1907   1.083       .  S
C1899      C1900   1.401       .  A
C1899      H1908   1.084       .  S
C1900      C1906   1.404       .  A
C1901      C1903   1.403       .  A
C1901      C1902   1.405       .  A
C1902      H1909   1.085       .  S
C1903      C1904   1.398       .  A
C1903      H1910   1.084       .  S
C1904      C1905   1.405       .  A
C1904      H1911   1.083       .  S
C1906      H1912   1.084       .  S
C1913      C1914   1.409       .  A
C1914      C1915   1.396       .  A
C1914      H1923   1.083       .  S
C1915      C1916   1.399       .  A
C1915      H1924   1.084       .  S
C1916      C1922   1.407       .  A
C1917      C1919   1.402       .  A
C1917      C1918   1.412       .  A
C1918      H1925   1.084       .  S
C1919      C1920   1.399       .  A
C1919      H1926   1.083       .  S
C1920      H1927   1.083       .  S
C1921      C1922   1.406   1_554  A
C1922      H1928   1.084       .  S
C1929      C1934   1.403   1_554  A
C1930      C1931   1.394       .  A
C1930      H1939   1.081       .  S
C1931      C1932   1.399       .  A
C1931      H1940   1.084       .  S
C1932      C1938   1.404       .  A
C1933      C1935   1.402       .  A
C1933      C1934   1.408       .  A
C1934      H1941   1.084       .  S
C1935      C1936   1.398       .  A
C1935      H1942   1.084       .  S
C1936      C1937   1.404       .  A
C1936      H1943   1.083       .  S
C1938      H1944   1.084       .  S
C1945      C1950   1.410   1_554  A
C1946      C1947   1.400       .  A
C1946      H1955   1.082       .  S
C1947      C1948   1.402       .  A
C1947      H1956   1.084       .  S
C1948      C1954   1.411       .  A
C1949      C1951   1.403       .  A
C1949      C1950   1.412       .  A
C1950      H1957   1.084       .  S
C1951      C1952   1.401       .  A
C1951      H1958   1.083       .  S
C1952      C1953   1.409       .  A
C1952      H1959   1.083       .  S
C1954      H1960   1.084       .  S
C1961      C1962   1.407       .  A
C1961      C2662   1.402       .  A
C1962      C1963   1.401       .  A
C1962      H1971   1.083       .  S
C1963      C1964   1.403       .  A
C1963      H1972   1.084       .  S
C1964      C1970   1.411       .  A
C1964      C2661   1.417       .  A
C1965      C2660   1.417   1_545  A
C1965      C1967   1.399       .  A
C1965      C1966   1.406       .  A
C1966      C2657   1.402   1_545  A
C1966      H1973   1.084       .  S
C1967      C1968   1.394       .  A
C1967      H1974   1.084       .  S
C1968      C2665   1.405       .  A
C1968      H1975   1.084       .  S
C1969      C2664   1.405       .  A
C1969      C1970   1.406       .  A
C1970      H1976   1.084       .  S
C1977      C2674   1.404       .  A
C1977      C1982   1.404       .  A
C1978      C2673   1.406       .  A
C1978      C1979   1.395       .  A
C1978      H1987   1.083       .  S
C1979      C1980   1.400       .  A
C1979      H1988   1.084       .  S
C1980      C1986   1.402       .  A
C1980      C2677   1.415   1_545  A
C1981      C2676   1.415       .  A
C1981      C1983   1.401       .  A
C1981      C1982   1.404       .  A
C1982      H1989   1.085       .  S
C1983      C1984   1.397       .  A
C1983      H1990   1.084       .  S
C1984      C1985   1.407       .  A
C1984      H1991   1.083       .  S
C1985      C2682   1.405       .  A
C1986      C2681   1.405   1_545  A
C1986      H1992   1.084       .  S
C1993      C1994   1.407       .  A
C1993      C2694   1.405       .  A
C1994      C1995   1.398       .  A
C1994      H2003   1.084       .  S
C1995      C1996   1.401       .  A
C1995      H2004   1.084       .  S
C1996      C2002   1.408       .  A
C1996      C2693   1.416       .  A
C1997      C2692   1.417   1_545  A
C1997      C1999   1.401       .  A
C1997      C1998   1.408       .  A
C1998      C2689   1.403   1_545  A
C1998      H2005   1.084       .  S
C1999      C2000   1.397       .  A
C1999      H2006   1.083       .  S
C2000      C2697   1.405       .  A
C2000      H2007   1.083       .  S
C2001      C2696   1.405       .  A
C2001      C2002   1.406       .  A
C2002      H2008   1.084       .  S
C2009      C2010   1.407       .  A
C2009      C2710   1.405       .  A
C2010      C2011   1.400       .  A
C2010      H2019   1.083       .  S
C2011      C2012   1.403       .  A
C2011      H2020   1.083       .  S
C2012      C2018   1.412       .  A
C2012      C2709   1.416       .  A
C2013      C2708   1.416   1_545  A
C2013      C2015   1.399       .  A
C2013      C2014   1.405       .  A
C2014      C2705   1.404   1_545  A
C2014      H2021   1.084       .  S
C2015      C2016   1.395       .  A
C2015      H2022   1.084       .  S
C2016      C2713   1.407       .  A
C2016      H2023   1.083       .  S
C2017      C2712   1.407       .  A
C2017      C2018   1.408       .  A
C2018      H2024   1.084       .  S
C2025      C2026   1.405       .  A
C2026      C2027   1.396       .  A
C2026      H2035   1.084       .  S
C2027      C2028   1.400       .  A
C2027      H2036   1.084       .  S
C2028      C2034   1.404       .  A
C2029      C2031   1.401       .  A
C2029      C2030   1.407       .  A
C2030      H2037   1.084       .  S
C2031      C2032   1.397       .  A
C2031      H2038   1.084       .  S
C2032      H2039   1.083       .  S
C2033      C2034   1.401       .  A
C2034      H2040   1.084       .  S
C2041      C2046   1.405       .  A
C2042      C2043   1.398       .  A
C2042      H2051   1.083       .  S
C2043      C2044   1.402       .  A
C2043      H2052   1.083       .  S
C2044      C2050   1.408       .  A
C2045      C2047   1.401       .  A
C2045      C2046   1.407       .  A
C2046      H2053   1.084       .  S
C2047      C2048   1.398       .  A
C2047      H2054   1.084       .  S
C2048      C2049   1.407       .  A
C2048      H2055   1.084       .  S
C2050      H2056   1.084       .  S
C2057      C2058   1.404       .  A
C2058      C2059   1.394       .  A
C2058      H2067   1.081       .  S
C2059      C2060   1.399       .  A
C2059      H2068   1.084       .  S
C2060      C2066   1.402       .  A
C2061      C2063   1.402       .  A
C2061      C2062   1.405       .  A
C2062      H2069   1.085       .  S
C2063      C2064   1.397       .  A
C2063      H2070   1.083       .  S
C2064      H2071   1.083       .  S
C2065      C2066   1.401       .  A
C2066      H2072   1.085       .  S
C2073      C2078   1.398       .  A
C2074      C2075   1.397       .  A
C2074      H2083   1.083       .  S
C2075      C2076   1.401       .  A
C2075      H2084   1.084       .  S
C2076      C2082   1.405       .  A
C2077      C2079   1.397       .  A
C2077      C2078   1.399       .  A
C2078      H2085   1.085       .  S
C2079      C2080   1.390       .  A
C2079      H2086   1.084       .  S
C2080      C2081   1.404       .  A
C2080      H2087   1.082       .  S
C2082      H2088   1.085       .  S
N2089      C2094   1.354       .  A
N2089      C2093   1.353       .  A
N2089      H2121   1.041       .  S
N2090      C2097   1.348       .  A
N2090      C2098   1.348       .  A
N2091      C2096   1.349       .  A
N2091      C2095   1.351       .  A
N2091      H2122   1.041       .  S
N2092      C2099   1.352       .  A
N2092      C2100   1.351       .  A
C2093      C2101   1.387       .  A
C2093      C2109   1.417       .  A
C2094      C2110   1.416       .  A
C2094      C2102   1.386       .  A
C2095      C2103   1.387       .  A
C2095      C2112   1.413       .  A
C2096      C2111   1.410       .  A
C2096      C2104   1.387       .  A
C2097      C2109   1.408       .  A
C2097      C2105   1.387       .  A
C2098      C2112   1.408       .  A
C2098      C2106   1.386       .  A
C2099      C2107   1.385       .  A
C2099      C2110   1.412       .  A
C2100      C2108   1.386       .  A
C2100      C2111   1.412       .  A
C2101      C2102   1.381       .  A
C2101      H2113   1.082       .  S
C2102      H2114   1.082       .  S
C2103      C2104   1.380       .  A
C2103      H2115   1.082       .  S
C2104      H2116   1.082       .  S
C2105      C2106   1.372       .  A
C2105      H2117   1.082       .  S
C2106      H2118   1.083       .  S
C2107      C2108   1.371       .  A
C2107      H2119   1.082       .  S
C2108      H2120   1.082       .  S
C2109      C2381   1.484       .  S
C2110      C2389   1.493       .  S
C2111      C2413   1.482       .  S
C2112      C2421   1.481       .  S
O2123      C2134   1.287       .  A
O2123     Zr2507   2.409       .  S
O2124      C2135   1.288       .  A
O2124     Zr2506   2.419       .  S
O2125      C2136   1.293   1_545  A
O2126      C2137   1.298   1_545  A
O2126     Zr2131   2.469       .  S
O2127      C2137   1.290   1_545  A
O2127     Zr2509   2.426   1_554  S
O2128      C2136   1.298       .  A
O2128     Zr2508   2.467       .  S
O2129      C2135   1.294       .  A
O2129     Zr2131   2.453   1_565  S
O2130      C2134   1.295       .  A
Zr2131     O2132   2.337   1_545  S
O2132     Zr2506   2.331       .  S
O2132     Zr2509   2.343   1_564  S
C2134      C2429   1.467       .  S
C2135      C2405   1.470       .  S
C2136      C2365   1.485   1_565  S
C2137      C2341   1.481       .  S
H2138      O2139   0.964       .  S
O2139     Zr2508   2.349       .  S
H2140      O2141   0.964       .  S
O2141     Zr2507   2.347       .  S
O2142      C2165   1.290       .  A
O2142     Zr2158   2.425       .  S
O2143      C2166   1.289       .  A
O2143     Zr2159   2.420       .  S
O2144      C2167   1.292       .  A
O2144     Zr2160   2.440       .  S
O2145      C2168   1.295       .  A
O2145     Zr2161   2.460   1_565  S
O2146      C2169   1.296       .  A
O2147      C2170   1.292       .  A
O2148      C2171   1.289   1_545  A
O2149      C2172   1.291       .  A
O2149     Zr2162   2.429       .  S
O2150      C2171   1.298       .  A
O2150     Zr2160   2.473       .  S
O2151      C2172   1.293       .  A
O2151     Zr2161   2.442       .  S
O2152      C2167   1.291       .  A
O2153      C2170   1.298       .  A
O2154      C2169   1.296       .  A
O2154     Zr2159   2.455       .  S
O2155      C2168   1.288       .  A
O2155     Zr2158   2.418       .  S
O2156      C2165   1.298       .  A
O2156     Zr2162   2.469   1_565  S
O2157      C2166   1.296       .  A
Zr2158     O2472   2.426       .  S
Zr2158     O2480   2.331       .  S
Zr2158     O2176   2.341       .  S
Zr2159     O2471   2.414       .  S
Zr2159     O2489   2.345       .  S
Zr2159     O2163   2.342       .  S
Zr2160     O2476   2.470       .  S
Zr2160     O2487   2.349       .  S
Zr2160     O2164   2.341       .  S
Zr2161     O2475   2.420       .  S
Zr2161     O2480   2.341   1_545  S
Zr2161     O2176   2.339   1_545  S
Zr2162     O2176   2.340   1_545  S
C2165      C2397   1.480       .  S
C2166      C2373   1.473       .  S
C2167      C2245   1.474       .  S
C2168      C2277   1.471       .  S
C2169      C2293   1.492       .  S
C2170      C2261   1.491       .  S
C2171      C2317   1.477   1_565  S
C2172      C2325   1.474       .  S
H2173      O2174   0.965       .  S
H2175      O2176   0.964       .  S
N2177      C2182   1.356   1_565  A
N2177      C2181   1.353   1_565  A
N2177      H2209   1.041       .  S
N2178      C2185   1.353       .  A
N2178      C2186   1.354       .  A
N2179      C2184   1.353       .  A
N2179      C2183   1.352       .  A
N2179      H2210   1.041       .  S
N2180      C2187   1.350       .  A
N2180      C2188   1.351       .  A
C2181      C2189   1.388       .  A
C2181      C2197   1.418   1_545  A
C2182      C2198   1.417   1_545  A
C2182      C2190   1.386       .  A
C2183      C2191   1.386   1_565  A
C2183      C2200   1.412       .  A
C2184      C2199   1.416       .  A
C2184      C2192   1.388   1_565  A
C2185      C2197   1.420       .  A
C2185      C2193   1.388       .  A
C2186      C2200   1.414       .  A
C2186      C2194   1.384       .  A
C2187      C2195   1.386       .  A
C2187      C2198   1.412       .  A
C2188      C2196   1.387       .  A
C2188      C2199   1.414       .  A
C2189      C2190   1.377       .  A
C2189      H2201   1.082       .  S
C2190      H2202   1.082       .  S
C2191      C2192   1.374       .  A
C2191      H2203   1.082       .  S
C2192      H2204   1.082       .  S
C2193      C2194   1.376       .  A
C2193      H2205   1.082       .  S
C2194      H2206   1.082       .  S
C2195      C2196   1.375       .  A
C2195      H2207   1.082       .  S
C2196      H2208   1.082       .  S
C2197      C2357   1.496       .  S
C2198      C2349   1.494       .  S
C2199      C2333   1.493       .  S
C2200      C2309   1.491       .  S
N2211      C2216   1.349       .  A
N2211      C2215   1.352       .  A
N2211      H2243   1.041       .  S
N2212      C2219   1.350       .  A
N2212      C2220   1.349       .  A
N2213      C2218   1.356       .  A
N2213      C2217   1.359       .  A
N2213      H2244   1.042       .  S
N2214      C2221   1.354       .  A
N2214      C2222   1.354       .  A
C2215      C2223   1.387       .  A
C2215      C2231   1.412       .  A
C2216      C2232   1.410       .  A
C2216      C2224   1.388       .  A
C2217      C2225   1.387       .  A
C2217      C2234   1.424       .  A
C2218      C2233   1.422       .  A
C2218      C2226   1.386       .  A
C2219      C2231   1.410       .  A
C2219      C2227   1.385       .  A
C2220      C2234   1.412       .  A
C2220      C2228   1.387       .  A
C2221      C2229   1.385       .  A
C2221      C2232   1.415       .  A
C2222      C2230   1.388       .  A
C2222      C2233   1.421       .  A
C2223      C2224   1.376       .  A
C2223      H2235   1.082       .  S
C2224      H2236   1.083       .  S
C2225      C2226   1.378       .  A
C2225      H2237   1.082       .  S
C2226      H2238   1.082       .  S
C2227      C2228   1.375       .  A
C2227      H2239   1.082       .  S
C2228      H2240   1.082       .  S
C2229      C2230   1.379       .  A
C2229      H2241   1.082       .  S
C2230      H2242   1.082       .  S
C2231      C2253   1.488       .  S
C2232      C2285   1.484       .  S
C2233      C2301   1.507       .  S
C2234      C2269   1.505       .  S
C2245      C2594   1.404       .  A
C2245      C2250   1.405       .  A
C2246      C2593   1.403       .  A
C2246      C2247   1.396       .  A
C2246      H2255   1.083       .  S
C2247      C2248   1.401       .  A
C2247      H2256   1.083       .  S
C2248      C2254   1.404       .  A
C2248      C2597   1.416   1_554  A
C2249      C2596   1.415       .  A
C2249      C2251   1.402       .  A
C2249      C2250   1.405       .  A
C2250      H2257   1.085       .  S
C2251      C2252   1.398       .  A
C2251      H2258   1.084       .  S
C2252      C2253   1.405       .  A
C2252      H2259   1.083       .  S
C2253      C2602   1.404       .  A
C2254      C2601   1.404   1_554  A
C2254      H2260   1.084       .  S
C2261      C2262   1.409       .  A
C2261      C2614   1.410       .  A
C2262      C2263   1.396       .  A
C2262      H2271   1.083       .  S
C2263      C2264   1.399       .  A
C2263      H2272   1.084       .  S
C2264      C2270   1.407       .  A
C2264      C2613   1.414       .  A
C2265      C2612   1.415   1_554  A
C2265      C2267   1.402       .  A
C2265      C2266   1.412       .  A
C2266      C2609   1.408   1_554  A
C2266      H2273   1.084       .  S
C2267      C2268   1.399       .  A
C2267      H2274   1.083       .  S
C2268      C2617   1.409       .  A
C2268      H2275   1.083       .  S
C2269      C2616   1.411       .  A
C2269      C2270   1.407       .  A
C2270      H2276   1.084       .  S
C2277      C2626   1.403       .  A
C2277      C2282   1.403       .  A
C2278      C2625   1.403       .  A
C2278      C2279   1.395       .  A
C2278      H2287   1.081       .  S
C2279      C2280   1.400       .  A
C2279      H2288   1.084       .  S
C2280      C2286   1.404       .  A
C2280      C2629   1.418   1_554  A
C2281      C2628   1.418       .  A
C2281      C2283   1.402       .  A
C2281      C2282   1.408       .  A
C2282      H2289   1.084       .  S
C2283      C2284   1.398       .  A
C2283      H2290   1.084       .  S
C2284      C2285   1.405       .  A
C2284      H2291   1.083       .  S
C2285      C2634   1.401       .  A
C2286      C2633   1.400   1_554  A
C2286      H2292   1.084       .  S
C2293      C2642   1.408       .  A
C2293      C2298   1.410       .  A
C2294      C2641   1.407       .  A
C2294      C2295   1.400       .  A
C2294      H2303   1.082       .  S
C2295      C2296   1.402       .  A
C2295      H2304   1.084       .  S
C2296      C2302   1.411       .  A
C2296      C2645   1.414   1_554  A
C2297      C2644   1.414       .  A
C2297      C2299   1.403       .  A
C2297      C2298   1.412       .  A
C2298      H2305   1.084       .  S
C2299      C2300   1.401       .  A
C2299      H2306   1.084       .  S
C2300      C2301   1.409       .  A
C2300      H2307   1.083       .  S
C2301      C2650   1.410       .  A
C2302      C2649   1.410   1_554  A
C2302      H2308   1.084       .  S
C2309      C2310   1.407       .  A
C2310      C2311   1.401       .  A
C2310      H2319   1.083       .  S
C2311      C2312   1.403       .  A
C2311      H2320   1.084       .  S
C2312      C2318   1.412       .  A
C2313      C2315   1.399       .  A
C2313      C2314   1.406       .  A
C2314      H2321   1.084       .  S
C2315      C2316   1.395       .  A
C2315      H2322   1.084       .  S
C2316      H2323   1.084       .  S
C2317      C2318   1.406   1_545  A
C2318      H2324   1.084       .  S
C2325      C2330   1.405   1_545  A
C2326      C2327   1.396       .  A
C2326      H2335   1.083       .  S
C2327      C2328   1.401       .  A
C2327      H2336   1.084       .  S
C2328      C2334   1.403       .  A
C2329      C2331   1.401       .  A
C2329      C2330   1.405       .  A
C2330      H2337   1.085       .  S
C2331      C2332   1.397       .  A
C2331      H2338   1.084       .  S
C2332      C2333   1.407       .  A
C2332      H2339   1.083       .  S
C2334      H2340   1.084       .  S
C2341      C2342   1.407       .  A
C2342      C2343   1.398       .  A
C2342      H2351   1.084       .  S
C2343      C2344   1.401       .  A
C2343      H2352   1.084       .  S
C2344      C2350   1.408       .  A
C2345      C2347   1.401       .  A
C2345      C2346   1.409       .  A
C2346      H2353   1.084       .  S
C2347      C2348   1.398       .  A
C2347      H2354   1.083       .  S
C2348      H2355   1.083       .  S
C2349      C2350   1.406       .  A
C2350      H2356   1.084       .  S
C2357      C2358   1.407       .  A
C2358      C2359   1.400       .  A
C2358      H2367   1.083       .  S
C2359      C2360   1.403       .  A
C2359      H2368   1.083       .  S
C2360      C2366   1.411       .  A
C2361      C2363   1.399       .  A
C2361      C2362   1.405       .  A
C2362      H2369   1.084       .  S
C2363      C2364   1.395       .  A
C2363      H2370   1.084       .  S
C2364      H2371   1.083       .  S
C2365      C2366   1.408   1_545  A
C2366      H2372   1.084       .  S
C2373      C2374   1.405       .  A
C2374      C2375   1.396       .  A
C2374      H2383   1.084       .  S
C2375      C2376   1.400       .  A
C2375      H2384   1.084       .  S
C2376      C2382   1.404       .  A
C2377      C2379   1.401       .  A
C2377      C2378   1.406       .  A
C2378      H2385   1.084       .  S
C2379      C2380   1.396       .  A
C2379      H2386   1.084       .  S
C2380      H2387   1.083       .  S
C2381      C2382   1.401       .  A
C2382      H2388   1.084       .  S
C2389      C2394   1.405       .  A
C2390      C2391   1.398       .  A
C2390      H2399   1.083       .  S
C2391      C2392   1.402       .  A
C2391      H2400   1.083       .  S
C2392      C2398   1.409       .  A
C2393      C2395   1.401       .  A
C2393      C2394   1.408       .  A
C2394      H2401   1.084       .  S
C2395      C2396   1.398       .  A
C2395      H2402   1.084       .  S
C2396      C2397   1.406       .  A
C2396      H2403   1.084       .  S
C2398      H2404   1.084       .  S
C2405      C2406   1.404       .  A
C2406      C2407   1.394       .  A
C2406      H2415   1.080       .  S
C2407      C2408   1.400       .  A
C2407      H2416   1.084       .  S
C2408      C2414   1.402       .  A
C2409      C2411   1.401       .  A
C2409      C2410   1.404       .  A
C2410      H2417   1.084       .  S
C2411      C2412   1.396       .  A
C2411      H2418   1.083       .  S
C2412      H2419   1.083       .  S
C2413      C2414   1.401       .  A
C2414      H2420   1.085       .  S
C2421      C2426   1.398       .  A
C2422      C2423   1.397       .  A
C2422      H2431   1.083       .  S
C2423      C2424   1.402       .  A
C2423      H2432   1.084       .  S
C2424      C2430   1.406       .  A
C2425      C2427   1.398       .  A
C2425      C2426   1.400       .  A
C2426      H2433   1.085       .  S
C2427      C2428   1.391       .  A
C2427      H2434   1.084       .  S
C2428      C2429   1.404       .  A
C2428      H2435   1.083       .  S
C2430      H2436   1.085       .  S
N2437      C2442   1.354       .  A
N2437      C2441   1.353       .  A
N2437      H2469   1.040       .  S
N2438      C2445   1.349       .  A
N2438      C2446   1.349       .  A
N2439      C2444   1.351       .  A
N2439      C2443   1.352       .  A
N2439      H2470   1.040       .  S
N2440      C2447   1.353       .  A
N2440      C2448   1.353       .  A
C2441      C2449   1.387       .  A
C2441      C2457   1.418       .  A
C2442      C2458   1.417       .  A
C2442      C2450   1.386       .  A
C2443      C2451   1.387       .  A
C2443      C2460   1.414       .  A
C2444      C2459   1.413       .  A
C2444      C2452   1.387       .  A
C2445      C2457   1.411       .  A
C2445      C2453   1.387       .  A
C2446      C2460   1.409       .  A
C2446      C2454   1.386       .  A
C2447      C2455   1.385       .  A
C2447      C2458   1.413       .  A
C2448      C2456   1.386       .  A
C2448      C2459   1.413       .  A
C2449      C2450   1.381       .  A
C2449      H2461   1.082       .  S
C2450      H2462   1.082       .  S
C2451      C2452   1.381       .  A
C2451      H2463   1.082       .  S
C2452      H2464   1.082       .  S
C2453      C2454   1.371       .  A
C2453      H2465   1.082       .  S
C2454      H2466   1.083       .  S
C2455      C2456   1.369       .  A
C2455      H2467   1.082       .  S
C2456      H2468   1.082       .  S
C2457      C2729   1.486       .  S
C2458      C2737   1.496       .  S
C2459      C2761   1.486       .  S
C2460      C2769   1.481       .  S
O2471      C2482   1.287       .  A
O2472      C2483   1.289       .  A
O2473      C2484   1.293   1_545  A
O2474      C2485   1.298   1_545  A
O2474     Zr2479   2.467       .  S
O2475      C2485   1.289   1_545  A
O2476      C2484   1.298       .  A
O2477      C2483   1.294       .  A
O2477     Zr2479   2.451   1_565  S
O2478      C2482   1.293       .  A
Zr2479     O2480   2.338   1_545  S
C2482      C2777   1.465       .  S
C2483      C2753   1.473       .  S
C2484      C2713   1.486   1_565  S
C2485      C2689   1.478       .  S
H2486      O2487   0.964       .  S
H2488      O2489   0.964       .  S
O2490      C2513   1.289       .  A
O2490     Zr2506   2.421   1_556  S
O2491      C2514   1.289       .  A
O2491     Zr2507   2.421   1_556  S
O2492      C2515   1.292       .  A
O2492     Zr2508   2.438       .  S
O2493      C2516   1.294       .  A
O2493     Zr2509   2.455   1_564  S
O2494      C2517   1.296       .  A
O2495      C2518   1.292       .  A
O2496      C2519   1.289   1_545  A
O2497      C2520   1.289       .  A
O2497     Zr2510   2.419       .  S
O2498      C2519   1.298       .  A
O2498     Zr2508   2.473   1_556  S
O2499      C2520   1.294       .  A
O2499     Zr2509   2.448       .  S
O2500      C2515   1.293       .  A
O2501      C2518   1.299       .  A
O2502      C2517   1.295       .  A
O2502     Zr2507   2.452       .  S
O2503      C2516   1.290       .  A
O2503     Zr2506   2.426       .  S
O2504      C2513   1.298       .  A
O2504     Zr2510   2.472   1_565  S
O2505      C2514   1.295       .  A
Zr2506     O2524   2.342   1_554  S
Zr2507     O2511   2.340   1_554  S
Zr2508     O2512   2.342   1_554  S
Zr2509     O2524   2.343   1_545  S
Zr2510     O2524   2.343   1_545  S
C2513      C2745   1.481       .  S
C2514      C2721   1.473       .  S
C2515      C2593   1.475       .  S
C2516      C2625   1.472       .  S
C2517      C2641   1.492       .  S
C2518      C2609   1.489   1_554  S
C2519      C2665   1.479   1_565  S
C2520      C2673   1.472       .  S
H2521      O2522   0.964       .  S
H2523      O2524   0.964       .  S
N2525      C2530   1.356   1_565  A
N2525      C2529   1.351   1_565  A
N2525      H2557   1.041       .  S
N2526      C2533   1.353       .  A
N2526      C2534   1.355       .  A
N2527      C2532   1.352       .  A
N2527      C2531   1.352       .  A
N2527      H2558   1.040       .  S
N2528      C2535   1.350       .  A
N2528      C2536   1.350       .  A
C2529      C2537   1.388       .  A
C2529      C2545   1.417   1_545  A
C2530      C2546   1.415   1_545  A
C2530      C2538   1.386       .  A
C2531      C2539   1.386   1_565  A
C2531      C2548   1.412       .  A
C2532      C2547   1.416       .  A
C2532      C2540   1.389   1_565  A
C2533      C2545   1.420       .  A
C2533      C2541   1.388       .  A
C2534      C2548   1.415       .  A
C2534      C2542   1.384       .  A
C2535      C2543   1.385       .  A
C2535      C2546   1.410       .  A
C2536      C2544   1.387       .  A
C2536      C2547   1.412       .  A
C2537      C2538   1.378       .  A
C2537      H2549   1.082       .  S
C2538      H2550   1.082       .  S
C2539      C2540   1.374       .  A
C2539      H2551   1.082       .  S
C2540      H2552   1.082       .  S
C2541      C2542   1.377       .  A
C2541      H2553   1.082       .  S
C2542      H2554   1.082       .  S
C2543      C2544   1.374       .  A
C2543      H2555   1.082       .  S
C2544      H2556   1.082       .  S
C2545      C2705   1.495       .  S
C2546      C2697   1.492   1_565  S
C2547      C2681   1.490       .  S
C2548      C2657   1.493       .  S
N2559      C2564   1.348   1_556  A
N2559      C2563   1.352   1_556  A
N2559      H2591   1.041       .  S
N2560      C2567   1.351       .  A
N2560      C2568   1.348       .  A
N2561      C2566   1.356       .  A
N2561      C2565   1.358   1_556  A
N2561      H2592   1.042       .  S
N2562      C2569   1.354       .  A
N2562      C2570   1.354       .  A
C2563      C2571   1.386       .  A
C2563      C2579   1.410   1_554  A
C2564      C2580   1.410   1_554  A
C2564      C2572   1.389       .  A
C2565      C2573   1.387       .  A
C2565      C2582   1.423   1_554  A
C2566      C2581   1.421       .  A
C2566      C2574   1.386   1_556  A
C2567      C2579   1.410       .  A
C2567      C2575   1.385       .  A
C2568      C2582   1.413       .  A
C2568      C2576   1.388       .  A
C2569      C2577   1.385       .  A
C2569      C2580   1.416       .  A
C2570      C2578   1.388       .  A
C2570      C2581   1.421       .  A
C2571      C2572   1.376       .  A
C2571      H2583   1.082       .  S
C2572      H2584   1.083       .  S
C2573      C2574   1.377       .  A
C2573      H2585   1.082       .  S
C2574      H2586   1.082       .  S
C2575      C2576   1.375       .  A
C2575      H2587   1.082       .  S
C2576      H2588   1.082       .  S
C2577      C2578   1.379       .  A
C2577      H2589   1.082       .  S
C2578      H2590   1.082       .  S
C2579      C2601   1.488       .  S
C2580      C2633   1.483       .  S
C2581      C2649   1.507       .  S
C2582      C2617   1.502   1_556  S
C2593      C2598   1.406   1_554  A
C2594      C2595   1.396       .  A
C2594      H2603   1.083       .  S
C2595      C2596   1.401       .  A
C2595      H2604   1.084       .  S
C2596      C2602   1.403       .  A
C2597      C2599   1.403       .  A
C2597      C2598   1.407       .  A
C2598      H2605   1.085       .  S
C2599      C2600   1.398       .  A
C2599      H2606   1.084       .  S
C2600      C2601   1.404       .  A
C2600      H2607   1.083       .  S
C2602      H2608   1.084       .  S
C2609      C2610   1.409       .  A
C2610      C2611   1.397       .  A
C2610      H2619   1.083       .  S
C2611      C2612   1.400       .  A
C2611      H2620   1.084       .  S
C2612      C2618   1.407       .  A
C2613      C2615   1.402       .  A
C2613      C2614   1.413       .  A
C2614      H2621   1.084       .  S
C2615      C2616   1.401       .  A
C2615      H2622   1.083       .  S
C2616      H2623   1.083       .  S
C2617      C2618   1.407   1_554  A
C2618      H2624   1.084       .  S
C2625      C2630   1.403   1_554  A
C2626      C2627   1.395       .  A
C2626      H2635   1.082       .  S
C2627      C2628   1.400       .  A
C2627      H2636   1.084       .  S
C2628      C2634   1.405       .  A
C2629      C2631   1.402       .  A
C2629      C2630   1.408       .  A
C2630      H2637   1.084       .  S
C2631      C2632   1.398       .  A
C2631      H2638   1.084       .  S
C2632      C2633   1.405       .  A
C2632      H2639   1.083       .  S
C2634      H2640   1.084       .  S
C2641      C2646   1.410   1_554  A
C2642      C2643   1.400       .  A
C2642      H2651   1.083       .  S
C2643      C2644   1.402       .  A
C2643      H2652   1.084       .  S
C2644      C2650   1.411       .  A
C2645      C2647   1.403       .  A
C2645      C2646   1.413       .  A
C2646      H2653   1.084       .  S
C2647      C2648   1.401       .  A
C2647      H2654   1.084       .  S
C2648      C2649   1.409       .  A
C2648      H2655   1.083       .  S
C2650      H2656   1.084       .  S
C2657      C2658   1.407       .  A
C2658      C2659   1.402       .  A
C2658      H2667   1.083       .  S
C2659      C2660   1.404       .  A
C2659      H2668   1.084       .  S
C2660      C2666   1.413       .  A
C2661      C2663   1.399       .  A
C2661      C2662   1.405       .  A
C2662      H2669   1.084       .  S
C2663      C2664   1.394       .  A
C2663      H2670   1.084       .  S
C2664      H2671   1.084       .  S
C2665      C2666   1.407   1_545  A
C2666      H2672   1.084       .  S
C2673      C2678   1.403   1_545  A
C2674      C2675   1.395       .  A
C2674      H2683   1.083       .  S
C2675      C2676   1.400       .  A
C2675      H2684   1.084       .  S
C2676      C2682   1.402       .  A
C2677      C2679   1.400       .  A
C2677      C2678   1.403       .  A
C2678      H2685   1.085       .  S
C2679      C2680   1.395       .  A
C2679      H2686   1.084       .  S
C2680      C2681   1.406       .  A
C2680      H2687   1.083       .  S
C2682      H2688   1.084       .  S
C2689      C2690   1.407       .  A
C2690      C2691   1.398       .  A
C2690      H2699   1.084       .  S
C2691      C2692   1.401       .  A
C2691      H2700   1.084       .  S
C2692      C2698   1.408       .  A
C2693      C2695   1.402       .  A
C2693      C2694   1.409       .  A
C2694      H2701   1.084       .  S
C2695      C2696   1.398       .  A
C2695      H2702   1.083       .  S
C2696      H2703   1.083       .  S
C2697      C2698   1.406   1_545  A
C2698      H2704   1.084       .  S
C2705      C2706   1.407       .  A
C2706      C2707   1.400       .  A
C2706      H2715   1.083       .  S
C2707      C2708   1.403       .  A
C2707      H2716   1.083       .  S
C2708      C2714   1.412       .  A
C2709      C2711   1.400       .  A
C2709      C2710   1.406       .  A
C2710      H2717   1.084       .  S
C2711      C2712   1.396       .  A
C2711      H2718   1.084       .  S
C2712      H2719   1.083       .  S
C2713      C2714   1.409   1_545  A
C2714      H2720   1.084       .  S
C2721      C2722   1.406       .  A
C2722      C2723   1.397       .  A
C2722      H2731   1.084       .  S
C2723      C2724   1.401       .  A
C2723      H2732   1.084       .  S
C2724      C2730   1.405       .  A
C2725      C2727   1.400       .  A
C2725      C2726   1.405       .  A
C2726      H2733   1.085       .  S
C2727      C2728   1.395       .  A
C2727      H2734   1.084       .  S
C2728      H2735   1.083       .  S
C2729      C2730   1.403       .  A
C2730      H2736   1.084       .  S
C2737      C2742   1.406       .  A
C2738      C2739   1.398       .  A
C2738      H2747   1.083       .  S
C2739      C2740   1.401       .  A
C2739      H2748   1.084       .  S
C2740      C2746   1.409       .  A
C2741      C2743   1.401       .  A
C2741      C2742   1.408       .  A
C2742      H2749   1.084       .  S
C2743      C2744   1.398       .  A
C2743      H2750   1.084       .  S
C2744      C2745   1.407       .  A
C2744      H2751   1.084       .  S
C2746      H2752   1.084       .  S
C2753      C2754   1.405       .  A
C2754      C2755   1.396       .  A
C2754      H2763   1.082       .  S
C2755      C2756   1.401       .  A
C2755      H2764   1.084       .  S
C2756      C2762   1.404       .  A
C2757      C2759   1.401       .  A
C2757      C2758   1.405       .  A
C2758      H2765   1.084       .  S
C2759      C2760   1.397       .  A
C2759      H2766   1.084       .  S
C2760      H2767   1.083       .  S
C2761      C2762   1.403       .  A
C2762      H2768   1.084       .  S
C2769      C2774   1.399       .  A
C2770      C2771   1.398       .  A
C2770      H2779   1.083       .  S
C2771      C2772   1.402       .  A
C2771      H2780   1.084       .  S
C2772      C2778   1.406       .  A
C2773      C2775   1.399       .  A
C2773      C2774   1.401       .  A
C2774      H2781   1.085       .  S
C2775      C2776   1.392       .  A
C2775      H2782   1.084       .  S
C2776      C2777   1.403       .  A
C2776      H2783   1.083       .  S
C2778      H2784   1.085       .  S
