geometry optimzed in LAMMPS
_audit_creation_date              2020-11-30 
_audit_creation_method            'lammps2cif' 
_symmetry_space_group_name_H-M    'P1' 
_symmetry_Int_Tables_number       1 
_symmetry_cell_setting            triclinic 
loop_ 
_symmetry_equiv_pos_as_xyz 
  x,y,z 
_cell_length_a                    56.9019665 
_cell_length_b                    56.86947439535903 
_cell_length_c                    57.1639373327508 
_cell_angle_alpha                 90.1614740828448 
_cell_angle_beta                  89.89819929498084 
_cell_angle_gamma                 120.72512163333914 
loop_ 
_atom_site_label 
_atom_site_type_symbol 
_atom_site_fract_x 
_atom_site_fract_y 
_atom_site_fract_z 
_atom_site_charge 
N1          N  0.02166712  0.65935584  0.36010990    -0.27400
N2          N  0.04643184  0.67621191  0.36838280    -0.35200
C3          C  0.05153979  0.66414067  0.38623118     0.01000
C4          C  0.02888599  0.63840363  0.38965554     0.07000
C5          C  0.01039721  0.63598183  0.37257458    -0.06100
H6          H  0.07045396  0.67348166  0.39603187     0.07700
H7          H  0.99044465  0.61836061  0.36912271     0.08900
Cu8        Cu  0.07288222  0.71465855  0.35493040     0.44200
Cu9        Cu  0.00488306  0.66926220  0.33193846     0.42000
Cu10       Cu  0.05041824  0.73634829  0.30536384     0.43900
N11         N  0.09708028  0.75185163  0.33855782    -0.34800
N12         N  0.08914527  0.75995011  0.32010295    -0.29000
C13         C  0.10977546  0.78466818  0.31338938    -0.05100
C14         C  0.13154576  0.79258031  0.32859186     0.07100
C15         C  0.12280091  0.77110923  0.34415445     0.00900
H16         H  0.10898198  0.79607580  0.29860299     0.08500
H17         H  0.13443732  0.76935599  0.35828032     0.07600
N18         N  0.01050577  0.70936472  0.29431414    -0.36200
N19         N  0.99392413  0.68516326  0.30377981    -0.28400
C20         C  0.96959761  0.67363927  0.29269055    -0.03600
C21         C  0.97076900  0.69156718  0.27566826     0.05000
C22         C  0.99718085  0.71379434  0.27706281     0.03100
H23         H  0.95211032  0.65392253  0.29706185     0.08200
H24         H  0.00611998  0.73199769  0.26635077     0.07000
N25         N  0.34114926  0.02827253  0.30225410    -0.27400
N26         N  0.31927818  0.00961184  0.29090170    -0.35200
C27         C  0.31281067  0.02183453  0.27415918     0.01000
C28         C  0.33092387  0.04978748  0.27529988     0.07000
C29         C  0.34893557  0.05302942  0.29313134    -0.06100
H30         H  0.29603545  0.01094323  0.26207882     0.07700
H31         H  0.36619287  0.07203321  0.29927540     0.08900
Cu32       Cu  0.29687881  0.96868288  0.29987726     0.44200
Cu33       Cu  0.35876169  0.01864082  0.32974926     0.42000
Cu34       Cu  0.31704095  0.94844440  0.35147944     0.43900
N35         N  0.27357524  0.93036052  0.31471100    -0.34800
N36         N  0.28068997  0.92298403  0.33408191    -0.29000
C37         C  0.26056804  0.89778595  0.34017180    -0.05100
C38         C  0.23986455  0.88876955  0.32369377     0.07100
C39         C  0.24876509  0.91011385  0.30793195     0.00900
H40         H  0.26074917  0.88703616  0.35569263     0.08500
H41         H  0.23755060  0.91135947  0.29319809     0.07600
N42         N  0.35548175  0.97671575  0.36419191    -0.36200
N43         N  0.37081764  0.00198036  0.35628748    -0.28400
C44         C  0.39480656  0.01414217  0.36784976    -0.03600
C45         C  0.39466344  0.99553911  0.38354248     0.05000
C46         C  0.36924620  0.97219474  0.38093506     0.03100
H47         H  0.41128829  0.03488069  0.36483538     0.08200
H48         H  0.36125373  0.95323763  0.39050679     0.07000
N49         N  0.03026535  0.34033286  0.69612691    -0.27400
N50         N  0.01501102  0.31514527  0.70421158    -0.35200
C51         C  0.02927497  0.31041290  0.72032171     0.01000
C52         C  0.05501010  0.33350708  0.72241534     0.07000
C53         C  0.05474840  0.35224570  0.70702183    -0.06100
H54         H  0.02133706  0.29148590  0.72992627     0.07700
H55         H  0.07130305  0.37287357  0.70372812     0.08900
Cu56       Cu  0.97550748  0.28751554  0.69306551     0.44200
Cu57       Cu  0.01675640  0.35677566  0.67023950     0.42000
Cu58       Cu  0.94529965  0.31312632  0.65324600     0.43900
N59         N  0.93653549  0.26333255  0.67926226    -0.34800
N60         N  0.92526359  0.27292330  0.66490312    -0.29000
C61         C  0.90056800  0.25227562  0.65829820    -0.05100
C62         C  0.89586085  0.22846139  0.66914673     0.07100
C63         C  0.91932527  0.23629676  0.68213804     0.00900
H64         H  0.88724702  0.25433986  0.64606654     0.08500
H65         H  0.92406596  0.22318809  0.69222235     0.07600
N66         N  0.97113445  0.35166658  0.63929083    -0.36200
N67         N  0.99734368  0.36717304  0.64456783    -0.28400
C68         C  0.00854813  0.38918377  0.63037397    -0.03600
C69         C  0.98852334  0.38735178  0.61527826     0.05000
C70         C  0.96496368  0.36351089  0.62193224     0.03100
H71         H  0.02993448  0.40495840  0.63053101     0.08200
H72         H  0.94476748  0.35497174  0.61448701     0.07000
N73         N  0.69162917  0.99316338  0.68942525    -0.27400
N74         N  0.71837454  0.00366549  0.69052359    -0.35200
C75         C  0.72400315  0.99086877  0.70737956     0.01000
C76         C  0.69980299  0.97185898  0.71818837     0.07000
C77         C  0.67965517  0.97367765  0.70596067    -0.06100
H78         H  0.74442273  0.99528523  0.71130070     0.07700
H79         H  0.65785266  0.96198753  0.70906841     0.08900
Cu80       Cu  0.74709162  0.03746646  0.67175828     0.44200
Cu81       Cu  0.67272345  0.00599778  0.66548029     0.42000
Cu82       Cu  0.72031596  0.06676468  0.63301663     0.43900
N83         N  0.77097624  0.07620446  0.65752106    -0.34800
N84         N  0.76079397  0.08716100  0.64347468    -0.29000
C85         C  0.77979673  0.11351338  0.63971095    -0.05100
C86         C  0.80332761  0.11952115  0.65180558     0.07100
C87         C  0.79683636  0.09532514  0.66303840     0.00900
H88         H  0.77606912  0.12768308  0.63016674     0.08500
H89         H  0.80946818  0.09225666  0.67531722     0.07600
N90         N  0.67858827  0.04507200  0.62714648    -0.36200
N91         N  0.66089593  0.02337692  0.63923261    -0.28400
C92         C  0.63554681  0.01493525  0.63116115    -0.03600
C93         C  0.63736462  0.03228451  0.61323106     0.05000
C94         C  0.66512342  0.05080941  0.61102403     0.03100
H95         H  0.61715753  0.99733085  0.63776662     0.08200
H96         H  0.67508960  0.06693121  0.59823340     0.07000
N97         N  0.55067559  0.01532677  0.50278153    -0.36700
N98         N  0.51291090  0.01736306  0.53619660    -0.57300
N99         N  0.47898402  0.01568242  0.49755712    -0.36700
N100        N  0.51527891  0.01096468  0.46445028    -0.57300
C101        C  0.56079136  0.01213362  0.52315749     0.26900
C102        C  0.56152932  0.00779348  0.48524601     0.26900
C103        C  0.46207704  0.01119942  0.51586326     0.26900
C104        C  0.46357107  0.00836971  0.47791404     0.26900
C105        C  0.53407798  0.02368876  0.55070471     0.35500
C106        C  0.49568424  0.02288149  0.54804066     0.35500
C107        C  0.53650948  0.01323234  0.45194370     0.35500
C108        C  0.49907832  0.01420044  0.44916295     0.35500
C109        C  0.57864951  0.00288075  0.51847559    -0.22000
C110        C  0.57898310  0.99999133  0.49458830    -0.22000
C111        C  0.43566662  0.00110081  0.50771929    -0.22000
C112        C  0.43662000  0.99936930  0.48377755    -0.22000
C113        C  0.53008320  0.03289904  0.57198054    -0.23000
C114        C  0.50580831  0.03249892  0.57025331    -0.23000
C115        C  0.53373774  0.01783046  0.42858337    -0.23000
C116        C  0.51003922  0.01852194  0.42683091    -0.23000
C117        C  0.55580578  0.01916741  0.54567375    -0.18400
C118        C  0.55718765  0.00906058  0.46099069    -0.18400
C119        C  0.47339752  0.01096411  0.45474562    -0.18400
C120        C  0.47012784  0.01768239  0.53955093    -0.18400
H121        H  0.59044051  0.99882749  0.53092738     0.14500
H122        H  0.59100142  0.99323712  0.48516209     0.14500
H123        H  0.41759326  0.99575248  0.51795213     0.14500
H124        H  0.41942485  0.99241941  0.47201249     0.14500
H125        H  0.54308893  0.03891590  0.58727603     0.12800
H126        H  0.49650425  0.03826811  0.58390181     0.12800
H127        H  0.54717430  0.02004662  0.41425107     0.12800
H128        H  0.50156688  0.02133374  0.41087124     0.12800
H129        H  0.53950762  0.02500143  0.50086809     0.26100
H130        H  0.50019494  0.02611356  0.49815590     0.26100
N131        N  0.00954760  0.47485470  0.50004166    -0.36700
N132        N  0.00201797  0.50748548  0.53527875    -0.57300
N133        N  0.00970258  0.54715597  0.49954876    -0.36700
N134        N  0.02043774  0.51634228  0.46473808    -0.57300
C135        C  0.01058668  0.46234683  0.51985393     0.26900
C136        C  0.01936622  0.46641292  0.48233891     0.26900
C137        C  0.01071730  0.56103014  0.51917202     0.26900
C138        C  0.01986435  0.56546668  0.48184801     0.26900
C139        C  0.99433050  0.48462902  0.54792459     0.35500
C140        C  0.99410703  0.52262531  0.54754314     0.35500
C141        C  0.01996195  0.49692689  0.45069331     0.35500
C142        C  0.01996023  0.53504174  0.45046939     0.35500
C143        C  0.02100587  0.44559132  0.51455886    -0.22000
C144        C  0.02631879  0.44798680  0.49090683    -0.22000
C145        C  0.02158771  0.58846078  0.51382257    -0.22000
C146        C  0.02722612  0.59122460  0.49025995    -0.22000
C147        C  0.98134402  0.48519649  0.56828561    -0.23000
C148        C  0.98123560  0.50930182  0.56805459    -0.23000
C149        C  0.01972574  0.50361437  0.42742261    -0.23000
C150        C  0.01965740  0.52772336  0.42728618    -0.23000
C151        C  0.00113208  0.46455226  0.54233883    -0.18400
C152        C  0.02128388  0.47403421  0.45848381    -0.18400
C153        C  0.02121527  0.55935611  0.45804704    -0.18400
C154        C  0.00063770  0.54938644  0.54148112    -0.18400
H155        H  0.02431465  0.43279392  0.52645771     0.14500
H156        H  0.03453794  0.43746345  0.48114456     0.14500
H157        H  0.02487184  0.60478948  0.52561711     0.14500
H158        H  0.03571476  0.61006305  0.48041075     0.14500
H159        H  0.97332104  0.47009957  0.58210130     0.12800
H160        H  0.97315051  0.51647830  0.58165532     0.12800
H161        H  0.01975245  0.49237566  0.41212096     0.12800
H162        H  0.01962820  0.53871946  0.41187517     0.12800
H163        H  0.00005908  0.48623728  0.49819217     0.26100
H164        H  0.99971323  0.52601386  0.49777693     0.26100
N165        N  0.59020404  0.98778069  0.00548108    -0.27400
N166        N  0.59985590  0.00748762  0.02132398    -0.35200
C167        C  0.58060844  0.01383500  0.02621417     0.01000
C168        C  0.55786034  0.99756922  0.01254322     0.07000
C169        C  0.56455518  0.98099790  0.99988591    -0.06100
H170        H  0.58338926  0.02990598  0.03809437     0.07700
H171        H  0.55204240  0.96565728  0.98705431     0.08900
Cu172      Cu  0.63968246  0.02640886  0.03360692     0.44200
Cu173      Cu  0.61364231  0.97369139  0.98996539     0.42000
Cu174      Cu  0.68640514  0.01093097  0.00262186     0.43900
N175        N  0.68100505  0.04450217  0.04109266    -0.34800
N176        N  0.69817483  0.03939858  0.02970993    -0.29000
C177        C  0.72338863  0.05515052  0.03874698    -0.05100
C178        C  0.72209965  0.07113598  0.05652621     0.07100
C179        C  0.69475529  0.06341649  0.05768044     0.00900
H180        H  0.74136404  0.05500177  0.03277631     0.08500
H181        H  0.68530626  0.07060031  0.06994222     0.07600
N182        N  0.66842575  0.98105868  0.97667668    -0.36200
N183        N  0.64183701  0.96723672  0.97254008    -0.28400
C184        C  0.63661956  0.94970730  0.95478121    -0.03600
C185        C  0.66111225  0.95281012  0.94699244     0.05000
C186        C  0.68081896  0.97264997  0.96153344     0.03100
H187        H  0.61637182  0.93563705  0.94814833     0.08200
H188        H  0.70261715  0.98062181  0.96097190     0.07000
N189        N  0.42815270  0.01506738  0.01337478    -0.27400
N190        N  0.41870577  0.99568920  0.99724056    -0.35200
C191        C  0.43676222  0.98743139  0.99398246     0.01000
C192        C  0.45856675  0.00207044  0.00898422     0.07000
C193        C  0.45256052  0.01965618  0.02086353    -0.06100
H194        H  0.43407011  0.97169933  0.98173811     0.07700
H195        H  0.46502194  0.03476207  0.03387564     0.08900
Cu196      Cu  0.38141077  0.98071920  0.98086265     0.44200
Cu197      Cu  0.40639526  0.03301929  0.02501508     0.42000
Cu198      Cu  0.33758446  0.00521049  0.00163703     0.43900
N199        N  0.34294512  0.96768436  0.96757775    -0.34800
N200        N  0.32687061  0.97654814  0.97513547    -0.29000
C201        C  0.30344291  0.96412065  0.96287036    -0.05100
C202        C  0.30472953  0.94637642  0.94698635     0.07100
C203        C  0.33023358  0.94943823  0.95030490     0.00900
H204        H  0.28669607  0.96774393  0.96534234     0.08500
H205        H  0.33920673  0.93961824  0.94058898     0.07600
N206        N  0.35350950  0.03341699  0.02874637    -0.36200
N207        N  0.37867273  0.04380361  0.03682910    -0.28400
C208        C  0.38268367  0.06133641  0.05427074    -0.03600
C209        C  0.35886542  0.06185381  0.05756715     0.05000
C210        C  0.34082565  0.04404425  0.04093684     0.03100
H211        H  0.40151791  0.07268052  0.06404609     0.08200
H212        H  0.32016489  0.03941590  0.03769353     0.07000
N213        N  0.02825027  0.43275024  0.99708828    -0.27400
N214        N  0.01029989  0.42334926  0.01433890    -0.35200
C215        C  0.00378791  0.44228508  0.02000321     0.01000
C216        C  0.01877012  0.46493478  0.00585724     0.07000
C217        C  0.03379953  0.45797011  0.99136874    -0.06100
H218        H  0.98907913  0.43958833  0.03330335     0.07700
H219        H  0.04790740  0.47040406  0.97775821     0.08900
Cu220      Cu  0.99654507  0.38562793  0.02968223     0.44200
Cu221      Cu  0.04419213  0.41074714  0.98220475     0.42000
Cu222      Cu  0.02968713  0.34812495  0.01108235     0.43900
N223        N  0.98755910  0.34820075  0.04314109    -0.34800
N224        N  0.00004735  0.33489949  0.03699654    -0.29000
C225        C  0.98875116  0.31108875  0.04871739    -0.05100
C226        C  0.96777306  0.30906458  0.06257848     0.07100
C227        C  0.96793824  0.33317785  0.05877907     0.00900
H228        H  0.99522222  0.29629667  0.04700663     0.08500
H229        H  0.95429551  0.33911149  0.06637250     0.07600
N230        N  0.05276588  0.36266904  0.98074114    -0.36200
N231        N  0.05720051  0.38508138  0.96994200    -0.28400
C232        C  0.07100155  0.38799584  0.95006081    -0.03600
C233        C  0.07548277  0.36631975  0.94804222     0.05000
C234        C  0.06392329  0.35085638  0.96806569     0.03100
H235        H  0.07705692  0.40460290  0.93782450     0.08200
H236        H  0.06368820  0.33246371  0.97321264     0.07000
N237        N  0.00689290  0.59768900  0.00916140    -0.27400
N238        N  0.02537660  0.60699077  0.99231918    -0.35200
C239        C  0.03168702  0.58781763  0.98700754     0.01000
C240        C  0.01605955  0.56515617  0.00097349     0.07000
C241        C  0.00084876  0.57233075  0.01499621    -0.06100
H242        H  0.04661476  0.59030042  0.97400621     0.07700
H243        H  0.98616149  0.55988163  0.02825828     0.08900
Cu244      Cu  0.04004464  0.64488545  0.97693232     0.44200
Cu245      Cu  0.99035581  0.61971041  0.02295144     0.42000
Cu246      Cu  0.01082540  0.68563368  0.99710491     0.43900
N247        N  0.05007460  0.68255000  0.96320772    -0.34800
N248        N  0.03962176  0.69747039  0.97028206    -0.29000
C249        C  0.05066306  0.72056432  0.95746171    -0.05100
C250        C  0.06871910  0.71996593  0.94145505     0.07100
C251        C  0.06791464  0.69566138  0.94580670     0.00900
H252        H  0.04614557  0.73672227  0.95985972     0.08500
H253        H  0.07939782  0.68795423  0.93686037     0.07600
N254        N  0.98238730  0.66823324  0.02419439    -0.36200
N255        N  0.97536920  0.64433804  0.03364330    -0.28400
C256        C  0.95717944  0.63889578  0.05084049    -0.03600
C257        C  0.95192767  0.66011215  0.05215095     0.05000
C258        C  0.96859782  0.67853207  0.03513558     0.03100
H259        H  0.94886323  0.62098133  0.06186372     0.08200
H260        H  0.97053813  0.69799705  0.03098813     0.07000
N261        N  0.09786483  0.35106087  0.34818801    -0.27400
N262        N  0.08806797  0.33159464  0.33209323    -0.35200
C263        C  0.10719717  0.32510880  0.32699705     0.01000
C264        C  0.13034386  0.34150510  0.34027274     0.07000
C265        C  0.12344439  0.35742611  0.35374853    -0.06100
H266        H  0.10470139  0.31002685  0.31411352     0.07700
H267        H  0.13607017  0.37259558  0.36665138     0.08900
Cu268      Cu  0.04971192  0.31603816  0.31675081     0.44200
Cu269      Cu  0.07649391  0.36912371  0.36100786     0.42000
Cu270      Cu  0.01290113  0.35087508  0.33178622     0.43900
N271        N  0.01236912  0.30653302  0.30204072    -0.34800
N272        N  0.99912617  0.31935707  0.30728871    -0.29000
C273        C  0.97610757  0.30866086  0.29440760    -0.05100
C274        C  0.97493513  0.28837085  0.28004400     0.07100
C275        C  0.99816226  0.28745536  0.28563393     0.00900
H276        H  0.96123781  0.31507741  0.29562808     0.08500
H277        H  0.00455422  0.27418909  0.27798594     0.07600
N278        N  0.02921940  0.37914756  0.35905662    -0.36200
N279        N  0.05207249  0.38527005  0.37006441    -0.28400
C280        C  0.05598370  0.40253571  0.38778459    -0.03600
C281        C  0.03446033  0.40742659  0.38821407     0.05000
C282        C  0.01812486  0.39252428  0.36941209     0.03100
H283        H  0.07291747  0.41037928  0.39992492     0.08200
H284        H  0.99944763  0.39128859  0.36363617     0.07000
N285        N  0.26366409  0.33004171  0.32992298    -0.27400
N286        N  0.27389971  0.34921975  0.34621882    -0.35200
C287        C  0.25468124  0.35506595  0.35271268     0.01000
C288        C  0.23101606  0.33851193  0.34008156     0.07000
C289        C  0.23767564  0.32316015  0.32558430    -0.06100
H290        H  0.25765812  0.37016143  0.36576408     0.07700
H291        H  0.22479620  0.30845367  0.31248352     0.08900
Cu292      Cu  0.31362764  0.36600424  0.35856700     0.44200
Cu293      Cu  0.28622229  0.31498250  0.31410258     0.42000
Cu294      Cu  0.35800140  0.34494505  0.33098258     0.43900
N295        N  0.35327291  0.37893173  0.36932260    -0.34800
N296        N  0.36967022  0.37173161  0.35937418    -0.29000
C297        C  0.39373105  0.38396594  0.37089068    -0.05100
C298        C  0.39224386  0.39928525  0.38920343     0.07100
C299        C  0.36632497  0.39567379  0.38741555     0.00900
H300        H  0.41106999  0.38208233  0.36603168     0.08500
H301        H  0.35743326  0.40445180  0.39861843     0.07600
N302        N  0.33926264  0.31630986  0.30418871    -0.36200
N303        N  0.31313451  0.30509629  0.29864792    -0.28400
C304        C  0.30726229  0.28715361  0.28110564    -0.03600
C305        C  0.33088988  0.28734213  0.27480711     0.05000
C306        C  0.35069720  0.30586583  0.29009348     0.03100
H307        H  0.28707003  0.27464522  0.27373598     0.08200
H308        H  0.37192978  0.31145474  0.29085820     0.07000
N309        N  0.34079928  0.13664430  0.16627347    -0.36700
N310        N  0.34833815  0.17541774  0.12979317    -0.57300
N311        N  0.34390510  0.21017692  0.16466681    -0.36700
N312        N  0.33851561  0.17255399  0.20134573    -0.57300
C313        C  0.34831804  0.12657569  0.14813506     0.26900
C314        C  0.34379655  0.12543220  0.18607617     0.26900
C315        C  0.35338195  0.22726899  0.14607033     0.26900
C316        C  0.34833387  0.22575851  0.18396688     0.26900
C317        C  0.34468014  0.15429053  0.11625966     0.35500
C318        C  0.34663429  0.19331065  0.11541707     0.35500
C319        C  0.33154327  0.15044611  0.21480688     0.35500
C320        C  0.33273409  0.18914231  0.21389904     0.35500
C321        C  0.35585457  0.10848817  0.15647331    -0.22000
C322        C  0.35289607  0.10767538  0.18037909    -0.22000
C323        C  0.36384292  0.25398158  0.15360792    -0.22000
C324        C  0.36076234  0.25304954  0.17752091    -0.22000
C325        C  0.34077477  0.15883941  0.09316284    -0.23000
C326        C  0.34202891  0.18360345  0.09262817    -0.23000
C327        C  0.32137186  0.15302505  0.23610066    -0.23000
C328        C  0.32184264  0.17742393  0.23542417    -0.23000
C329        C  0.34723079  0.13218037  0.12416941    -0.18400
C330        C  0.33683232  0.12942503  0.20894835    -0.18400
C331        C  0.33980126  0.21584538  0.20700706    -0.18400
C332        C  0.35139914  0.21924481  0.12235196    -0.18400
H333        H  0.36257655  0.09686911  0.14637422     0.14500
H334        H  0.35676259  0.09516579  0.19215244     0.14500
H335        H  0.37265707  0.27224943  0.14295775     0.14500
H336        H  0.36675745  0.27049730  0.18884708     0.14500
H337        H  0.33784751  0.14590770  0.07820603     0.12800
H338        H  0.34024787  0.19354893  0.07718391     0.12800
H339        H  0.31478573  0.13907101  0.25075837     0.12800
H340        H  0.31570282  0.18595134  0.24946134     0.12800
H341        H  0.33134785  0.14810403  0.16496586     0.26100
H342        H  0.33216131  0.18895049  0.16389761     0.26100
N343        N  0.68293090  0.76079741  0.31634971    -0.27400
N344        N  0.66483880  0.75178820  0.33352884    -0.35200
C345        C  0.65903102  0.77122746  0.33919696     0.01000
C346        C  0.67437524  0.79373113  0.32504896     0.07000
C347        C  0.68904645  0.78626415  0.31056153    -0.06100
H348        H  0.64476337  0.76914804  0.35271324     0.07700
H349        H  0.70350195  0.79864126  0.29713267     0.08900
Cu350      Cu  0.64976172  0.71394616  0.34920673     0.44200
Cu351      Cu  0.69883577  0.73794480  0.30240182     0.42000
Cu352      Cu  0.67688956  0.67175484  0.32946693     0.43900
N353        N  0.63949046  0.67669941  0.36407537    -0.34800
N354        N  0.64950253  0.66135236  0.35716157    -0.29000
C355        C  0.63897077  0.63887828  0.37071105    -0.05100
C356        C  0.62168917  0.64028501  0.38708575     0.07100
C357        C  0.62237688  0.66444073  0.38213283     0.00900
H358        H  0.64326255  0.62254137  0.36852056     0.08500
H359        H  0.61141316  0.67267341  0.39115882     0.07600
N360        N  0.70394413  0.68740025  0.30137011    -0.36200
N361        N  0.71189726  0.71143027  0.29167355    -0.28400
C362        C  0.72999545  0.71587920  0.27458958    -0.03600
C363        C  0.73394529  0.69378764  0.27360269     0.05000
C364        C  0.71677901  0.67595398  0.29062929     0.03100
H365        H  0.73975836  0.73403257  0.26381767     0.08200
H366        H  0.71439748  0.65643371  0.29532424     0.07000
N367        N  0.66458709  0.92742134  0.33553699    -0.27400
N368        N  0.68179814  0.93668387  0.31773669    -0.35200
C369        C  0.68681936  0.91709493  0.31064009     0.01000
C370        C  0.67187640  0.89426970  0.32458190     0.07000
C371        C  0.65826122  0.90169344  0.34033746    -0.06100
H372        H  0.70081990  0.91954912  0.29674069     0.07700
H373        H  0.64481041  0.88931955  0.35431933     0.08900
Cu374      Cu  0.69826685  0.97595260  0.30482842     0.44200
Cu375      Cu  0.65119442  0.95074599  0.35255073     0.42000
Cu376      Cu  0.67805939  0.02084951  0.33257381     0.43900
N377        N  0.71343522  0.01628680  0.29545117    -0.34800
N378        N  0.70621100  0.03277734  0.30521408    -0.29000
C379        C  0.72014955  0.05742869  0.29477531    -0.05100
C380        C  0.73717008  0.05639138  0.27793237     0.07100
C381        C  0.73209765  0.02991540  0.27872473     0.00900
H382        H  0.71821475  0.07486734  0.29922938     0.08500
H383        H  0.74106084  0.02102821  0.26774211     0.07600
N384        N  0.65086707  0.00323248  0.36049232    -0.36200
N385        N  0.64124551  0.97780643  0.36761599    -0.28400
C386        C  0.62473894  0.97285607  0.38612267    -0.03600
C387        C  0.62407232  0.99632637  0.39118981     0.05000
C388        C  0.64066168  0.01508588  0.37436341     0.03100
H389        H  0.61424515  0.95362206  0.39542618     0.08200
H390        H  0.64487954  0.03577935  0.37222070     0.07000
N391        N  0.80879014  0.67678070  0.16560241    -0.36700
N392        N  0.84404113  0.67565463  0.12913929    -0.57300
N393        N  0.88023054  0.67494757  0.16517865    -0.36700
N394        N  0.84650771  0.67932038  0.20154053    -0.57300
C395        C  0.79707066  0.68050604  0.14646908     0.26900
C396        C  0.79870434  0.68295770  0.18458822     0.26900
C397        C  0.89511257  0.67743258  0.14583187     0.26900
C398        C  0.89632728  0.67930109  0.18407378     0.26900
C399        C  0.82320822  0.67245090  0.11544940     0.35500
C400        C  0.86113683  0.67203467  0.11513580     0.35500
C401        C  0.82641411  0.67733813  0.21559734     0.35500
C402        C  0.86405082  0.67633667  0.21541521     0.35500
C403        C  0.77899957  0.68873468  0.15345254    -0.22000
C404        C  0.78019180  0.69048383  0.17742969    -0.22000
C405        C  0.92080725  0.68278465  0.15259336    -0.22000
C406        C  0.92163432  0.68415870  0.17662492    -0.22000
C407        C  0.82747715  0.66752545  0.09253799    -0.23000
C408        C  0.85148288  0.66735541  0.09231342    -0.23000
C409        C  0.83133051  0.67329384  0.23854309    -0.23000
C410        C  0.85516221  0.67269580  0.23843510    -0.23000
C411        C  0.80096015  0.67512407  0.12298859    -0.18400
C412        C  0.80441022  0.68050196  0.20828170    -0.18400
C413        C  0.88865531  0.67806905  0.20790705    -0.18400
C414        C  0.88588680  0.67384564  0.12228688    -0.18400
H415        H  0.76605333  0.69288361  0.14251311     0.14500
H416        H  0.76838204  0.69624065  0.18836303     0.14500
H417        H  0.93733598  0.68537509  0.14143216     0.14500
H418        H  0.93889803  0.68804839  0.18738163     0.14500
H419        H  0.81478985  0.66464666  0.07746271     0.12800
H420        H  0.86078946  0.66427613  0.07698883     0.12800
H421        H  0.81912076  0.67118423  0.25380484     0.12800
H422        H  0.86488174  0.66997016  0.25360097     0.12800
H423        H  0.82033664  0.66740472  0.16584353     0.26100
H424        H  0.85953707  0.66810665  0.16553082     0.26100
N425        N  0.88720855  0.21431467  0.16829315    -0.36700
N426        N  0.84991317  0.17817251  0.20326077    -0.57300
N427        N  0.81161735  0.14544356  0.16642949    -0.36700
N428        N  0.85034864  0.18085859  0.13107487    -0.57300
C429        C  0.90360948  0.22278759  0.18734256     0.26900
C430        C  0.90354541  0.22427282  0.14930562     0.26900
C431        C  0.80003993  0.12873078  0.18504021     0.26900
C432        C  0.80001070  0.13041515  0.14690208     0.26900
C433        C  0.86796342  0.19829656  0.21751699     0.35500
C434        C  0.82809335  0.16148282  0.21658699     0.35500
C435        C  0.86800977  0.20306035  0.11847543     0.35500
C436        C  0.82818964  0.16598382  0.11738036     0.35500
C437        C  0.93070447  0.23814597  0.18036888    -0.22000
C438        C  0.93067006  0.23902352  0.15632390    -0.22000
C439        C  0.78057128  0.10285416  0.17726476    -0.22000
C440        C  0.78042917  0.10395299  0.15322793    -0.22000
C441        C  0.85761235  0.19439313  0.24003088    -0.23000
C442        C  0.83233508  0.17097871  0.23946280    -0.23000
C443        C  0.85711485  0.20212114  0.09657439    -0.23000
C444        C  0.83205103  0.17844710  0.09577486    -0.23000
C445        C  0.89460122  0.21862083  0.21083876    -0.18400
C446        C  0.89433620  0.22338342  0.12619754    -0.18400
C447        C  0.80527051  0.14050549  0.12368440    -0.18400
C448        C  0.80549373  0.13655708  0.20886753    -0.18400
H449        H  0.94860120  0.24814480  0.19146831     0.14500
H450        H  0.94850579  0.25004017  0.14527527     0.14500
H451        H  0.76750159  0.08509634  0.18782073     0.14500
H452        H  0.76715474  0.08718344  0.14178134     0.14500
H453        H  0.86751336  0.20673317  0.25535350     0.12800
H454        H  0.81881569  0.16173808  0.25427088     0.12800
H455        H  0.86625416  0.21679737  0.08253138     0.12800
H456        H  0.81825758  0.17132387  0.08098157     0.12800
H457        H  0.86612752  0.20583293  0.16832305     0.26100
H458        H  0.82444526  0.16652545  0.16709459     0.26100
N459        N  0.35643632  0.31890331  0.02199623    -0.27400
N460        N  0.38147106  0.33525142  0.03008336    -0.35200
C461        C  0.38643608  0.32246427  0.04746003     0.01000
C462        C  0.36339221  0.29700307  0.05084180     0.07000
C463        C  0.34485737  0.29532819  0.03419664    -0.06100
H464        H  0.40512295  0.33150419  0.05756610     0.07700
H465        H  0.32428011  0.27842071  0.03142306     0.08900
Cu466      Cu  0.40746201  0.37540496  0.01925248     0.44200
Cu467      Cu  0.33817559  0.33002878  0.99590496     0.42000
Cu468      Cu  0.37704818  0.40195329  0.98110256     0.43900
N469        N  0.42796154  0.41580126  0.00775404    -0.34800
N470        N  0.41644809  0.42546254  0.99374274    -0.29000
C471        C  0.43433773  0.45197785  0.98930724    -0.05100
C472        C  0.45846545  0.45944577  0.00096436     0.07100
C473        C  0.45356505  0.43605383  0.01272514     0.00900
H474        H  0.42996557  0.46490335  0.97855394     0.08500
H475        H  0.46764365  0.43389667  0.02394073     0.07600
N476        N  0.33870746  0.37507487  0.96770130    -0.36200
N477        N  0.32459732  0.34859900  0.97226176    -0.28400
C478        C  0.30132864  0.33713883  0.95960336    -0.03600
C479        C  0.30058514  0.35752020  0.94675143     0.05000
C480        C  0.32481964  0.38119934  0.95234232     0.03100
H481        H  0.28643225  0.31548513  0.95942198     0.08200
H482        H  0.33204227  0.40152444  0.94559577     0.07000
N483        N  0.69857074  0.66796523  0.02385564    -0.27400
N484        N  0.68116563  0.64498128  0.03465119    -0.35200
C485        C  0.69373466  0.64142900  0.05302652     0.01000
C486        C  0.72038654  0.66324104  0.05413444     0.07000
C487        C  0.72278325  0.67947926  0.03508570    -0.06100
H488        H  0.68397567  0.62433401  0.06497241     0.07700
H489        H  0.74076804  0.69828207  0.02968618     0.08900
Cu490      Cu  0.64075523  0.61927579  0.02470740     0.44200
Cu491      Cu  0.68792801  0.68367117  0.99535135     0.42000
Cu492      Cu  0.61541488  0.64551514  0.98103230     0.43900
N493        N  0.60092018  0.59755979  0.01225199    -0.34800
N494        N  0.59151952  0.60732371  0.99620271    -0.29000
C495        C  0.56534260  0.58844270  0.99144286    -0.05100
C496        C  0.55772513  0.56574599  0.00538329     0.07100
C497        C  0.58097770  0.57220767  0.01816322     0.00900
H498        H  0.55284023  0.59096395  0.97862178     0.08500
H499        H  0.58349574  0.55918515  0.03039685     0.07600
N500        N  0.64316492  0.68295826  0.96626950    -0.36200
N501        N  0.66969784  0.69652434  0.97067163    -0.28400
C502        C  0.68164392  0.71947641  0.95762872    -0.03600
C503        C  0.66159135  0.72072662  0.94471433     0.05000
C504        C  0.63753860  0.69698069  0.95058879     0.03100
H505        H  0.70337858  0.73401308  0.95748461     0.08200
H506        H  0.61726729  0.69036923  0.94402395     0.07000
N507        N  0.92667478  0.66793527  0.66243094    -0.27400
N508        N  0.93830661  0.68914488  0.67676982    -0.35200
C509        C  0.92045479  0.69737314  0.68152835     0.01000
C510        C  0.89637888  0.68044750  0.66963232     0.07000
C511        C  0.90118500  0.66220000  0.65753544    -0.06100
H512        H  0.92503917  0.71497888  0.69216013     0.07700
H513        H  0.88734113  0.64623586  0.64569360     0.08900
Cu514      Cu  0.97836794  0.70661202  0.68807753     0.44200
Cu515      Cu  0.94666026  0.64901299  0.64899441     0.42000
Cu516      Cu  0.01841083  0.67882686  0.66428871     0.43900
N517        N  0.01796530  0.71923278  0.69839605    -0.34800
N518        N  0.03245738  0.70872826  0.69040192    -0.29000
C519        C  0.05640272  0.72021417  0.70203870    -0.05100
C520        C  0.05725559  0.73928284  0.71783683     0.07100
C521        C  0.03235846  0.73783750  0.71499883     0.00900
H522        H  0.07161830  0.71442355  0.69959934     0.08500
H523        H  0.02498005  0.74924293  0.72454439     0.07600
N524        N  0.99841265  0.64835662  0.63901518    -0.36200
N525        N  0.97203330  0.63676301  0.63441264    -0.28400
C526        C  0.96522994  0.61766894  0.61771919    -0.03600
C527        C  0.98857712  0.61763472  0.61077925     0.05000
C528        C  0.00915060  0.63717253  0.62498448     0.03100
H529        H  0.94467239  0.60484296  0.61120575     0.08200
H530        H  0.03050558  0.64314801  0.62489701     0.07000
N531        N  0.68109440  0.65324481  0.62780708    -0.27400
N532        N  0.66684360  0.66490120  0.63342417    -0.35200
C533        C  0.64281898  0.65200363  0.62191995     0.01000
C534        C  0.64167913  0.63084929  0.60876457     0.07000
C535        C  0.66645792  0.63251652  0.61294078    -0.06100
H536        H  0.62766218  0.65805796  0.62277430     0.07700
H537        H  0.67354838  0.61970036  0.60555992     0.08900
Cu538      Cu  0.68030629  0.69690291  0.65738981     0.44200
Cu539      Cu  0.72036805  0.66612177  0.63916215     0.42000
Cu540      Cu  0.74802059  0.71933110  0.68129205     0.43900
N541        N  0.69743682  0.72371380  0.68556527    -0.34800
N542        N  0.72187738  0.73139771  0.69419964    -0.29000
C543        C  0.72616903  0.74680818  0.71333979    -0.05100
C544        C  0.70327092  0.74878224  0.71723882     0.07100
C545        C  0.68556003  0.73417863  0.69908001     0.00900
H546        H  0.74435215  0.75525496  0.72407647     0.08500
H547        H  0.66536826  0.73098719  0.69609407     0.07600
N548        N  0.77002256  0.70278004  0.66760129    -0.36200
N549        N  0.75971705  0.68287041  0.65197858    -0.28400
C550        C  0.77832969  0.67569079  0.64707424    -0.03600
C551        C  0.80163337  0.69209983  0.66013930     0.05000
C552        C  0.79546778  0.70884525  0.67312756     0.03100
H553        H  0.77476495  0.65913119  0.63547125     0.08200
H554        H  0.80837181  0.72405050  0.68591277     0.07000
N555        N  0.67932091  0.81121956  0.83318674    -0.36700
N556        N  0.67508255  0.84480646  0.86926316    -0.57300
N557        N  0.67874612  0.88322138  0.83315212    -0.36700
N558        N  0.68605154  0.85128630  0.79753602    -0.57300
C559        C  0.68120673  0.79870409  0.85263820     0.26900
C560        C  0.68851906  0.80285071  0.81499245     0.26900
C561        C  0.68115570  0.89766530  0.85281681     0.26900
C562        C  0.68567822  0.90058091  0.81475574     0.26900
C563        C  0.66785183  0.82209014  0.88204936     0.35500
C564        C  0.66856698  0.86060428  0.88223133     0.35500
C565        C  0.68627006  0.83220282  0.78353266     0.35500
C566        C  0.68474642  0.86955130  0.78327330     0.35500
C567        C  0.69147003  0.78201649  0.84668173    -0.22000
C568        C  0.69606494  0.78461390  0.82294442    -0.22000
C569        C  0.68954049  0.92442808  0.84680595    -0.22000
C570        C  0.69187816  0.92613879  0.82289511    -0.22000
C571        C  0.65684990  0.82355826  0.90326515    -0.23000
C572        C  0.65730238  0.84792785  0.90338106    -0.23000
C573        C  0.68542672  0.83853898  0.76026567    -0.23000
C574        C  0.68466109  0.86224284  0.76009420    -0.23000
C575        C  0.67247233  0.80077392  0.87538409    -0.18400
C576        C  0.68916930  0.81018255  0.79123024    -0.18400
C577        C  0.68560105  0.89375949  0.79078490    -0.18400
C578        C  0.67405638  0.88700864  0.87586684    -0.18400
H579        H  0.69512205  0.76915667  0.85821875     0.14500
H580        H  0.70397587  0.77414795  0.81268586     0.14500
H581        H  0.69313197  0.94102851  0.85838481     0.14500
H582        H  0.69742483  0.94432182  0.81284985     0.14500
H583        H  0.64936558  0.80868550  0.91725828     0.12800
H584        H  0.65023987  0.85549862  0.91749140     0.12800
H585        H  0.68586171  0.82753218  0.74495113     0.12800
H586        H  0.68454034  0.87304028  0.74458987     0.12800
H587        H  0.66951538  0.82227507  0.83197169     0.26100
H588        H  0.67002701  0.86224444  0.83217043     0.26100
N589        N  0.34971135  0.09442626  0.65436997    -0.27400
N590        N  0.32846649  0.08350234  0.66866184    -0.35200
C591        C  0.32159723  0.10231857  0.67378774     0.01000
C592        C  0.33905829  0.12607227  0.66179275     0.07000
C593        C  0.35674646  0.12039959  0.64978959    -0.06100
H594        H  0.30511119  0.09895627  0.68537578     0.07700
H595        H  0.37372983  0.13423810  0.63881527     0.08900
Cu596      Cu  0.31039556  0.04374805  0.68086329     0.44200
Cu597      Cu  0.36794086  0.07335845  0.64167602     0.42000
Cu598      Cu  0.33589234  0.00165891  0.65690853     0.43900
N599        N  0.30030923  0.00582527  0.69396998    -0.34800
N600        N  0.31018100  0.99081419  0.68586168    -0.29000
C601        C  0.30211915  0.96916207  0.70006121    -0.05100
C602        C  0.28656235  0.97068538  0.71810346     0.07100
C603        C  0.28542422  0.99395574  0.71324419     0.00900
H604        H  0.30784094  0.95385363  0.69776120     0.08500
H605        H  0.27479151  0.00199029  0.72302830     0.07600
N606        N  0.36603515  0.02031831  0.63140437    -0.36200
N607        N  0.37885461  0.04684496  0.62712378    -0.28400
C608        C  0.39832002  0.05301554  0.61096524    -0.03600
C609        C  0.39729873  0.02911066  0.60400699     0.05000
C610        C  0.37671740  0.00883754  0.61766676     0.03100
H611        H  0.41227268  0.07356824  0.60497544     0.08200
H612        H  0.36997270  0.98727553  0.61766251     0.07000
N613        N  0.30901597  0.31307886  0.70309404    -0.27400
N614        N  0.31895843  0.33843368  0.69557450    -0.35200
C615        C  0.30628213  0.34955110  0.70716659     0.01000
C616        C  0.28725098  0.33013415  0.72237238     0.07000
C617        C  0.28980536  0.30740677  0.71941987    -0.06100
H618        H  0.31042211  0.37016732  0.70459294     0.07700
H619        H  0.27873138  0.28818473  0.72867846     0.08900
Cu620      Cu  0.34901952  0.35650296  0.66945335     0.44200
Cu621      Cu  0.32142079  0.28658917  0.69137164     0.42000
Cu622      Cu  0.36838676  0.31019636  0.64372107     0.43900
N623        N  0.37751150  0.36746946  0.64216055    -0.34800
N624        N  0.38365330  0.35005468  0.63265136    -0.29000
C625        C  0.40197746  0.36260263  0.61544586    -0.05100
C626        C  0.40843589  0.38957377  0.61416708     0.07100
C627        C  0.39214394  0.39178214  0.63120617     0.00900
H628        H  0.40976162  0.35255795  0.60451533     0.08500
H629        H  0.39113393  0.40980386  0.63541286     0.07600
N630        N  0.35358112  0.27215364  0.65887394    -0.36200
N631        N  0.33622006  0.26339769  0.67655764    -0.28400
C632        C  0.33031280  0.23806270  0.68242388    -0.03600
C633        C  0.34502210  0.23062079  0.66792585     0.05000
C634        C  0.35932441  0.25270574  0.65305662     0.03100
H635        H  0.31586871  0.22578725  0.69588244     0.08200
H636        H  0.37291952  0.25451662  0.63901080     0.07000
N637        N  0.14460618  0.35006679  0.83320539    -0.36700
N638        N  0.18060838  0.35047750  0.86977333    -0.57300
N639        N  0.21499271  0.34705815  0.83405537    -0.36700
N640        N  0.17769432  0.34408702  0.79774506    -0.57300
C641        C  0.12941789  0.34682473  0.85248633     0.26900
C642        C  0.12799118  0.34376574  0.81439362     0.26900
C643        C  0.22540011  0.34236174  0.85357937     0.26900
C644        C  0.22379368  0.33873883  0.81554356     0.26900
C645        C  0.16499970  0.35717502  0.88275539     0.35500
C646        C  0.20233640  0.35576174  0.88318579     0.35500
C647        C  0.16101812  0.34812863  0.78363870     0.35500
C648        C  0.19821021  0.34640722  0.78410086     0.35500
C649        C  0.10287355  0.33863885  0.84581528    -0.22000
C650        C  0.10195844  0.33661171  0.82179992    -0.22000
C651        C  0.24100038  0.33093263  0.84739848    -0.22000
C652        C  0.24000221  0.32866320  0.82339073    -0.22000
C653        C  0.17665289  0.36635134  0.90464584    -0.23000
C654        C  0.20041469  0.36566528  0.90484812    -0.23000
C655        C  0.17086021  0.35282061  0.76091017    -0.23000
C656        C  0.19445204  0.35178973  0.76120714    -0.23000
C657        C  0.13950943  0.35344890  0.87566869    -0.18400
C658        C  0.13610199  0.34588094  0.79068025    -0.18400
C659        C  0.21924361  0.34189166  0.79170643    -0.18400
C660        C  0.22295783  0.35014640  0.87660415    -0.18400
H661        H  0.08597691  0.33497037  0.85700342     0.14500
H662        H  0.08423200  0.33095918  0.81100272     0.14500
H663        H  0.25231904  0.32525826  0.85896838     0.14500
H664        H  0.25039807  0.32088792  0.81287403     0.14500
H665        H  0.16880473  0.37271560  0.91905367     0.12800
H666        H  0.21446975  0.37149648  0.91939692     0.12800
H667        H  0.16186177  0.35639652  0.74566971     0.12800
H668        H  0.20720400  0.35440041  0.74621725     0.12800
H669        H  0.16574191  0.35926063  0.83276218     0.26100
H670        H  0.20546995  0.35850598  0.83318799     0.26100
N671        N  0.14530495  0.80981406  0.83098573    -0.36700
N672        N  0.18244480  0.84313740  0.86730583    -0.57300
N673        N  0.21812606  0.88189387  0.83224238    -0.36700
N674        N  0.18164527  0.84739003  0.79555688    -0.57300
C675        C  0.13594554  0.79227797  0.84925257     0.26900
C676        C  0.13558946  0.79468909  0.81126241     0.26900
C677        C  0.23484250  0.89021603  0.85107563     0.26900
C678        C  0.23404433  0.89296981  0.81311033     0.26900
C679        C  0.16116456  0.82563769  0.88079798     0.35500
C680        C  0.20004155  0.86354730  0.88148593     0.35500
C681        C  0.15898543  0.83212001  0.78253302     0.35500
C682        C  0.19767840  0.87042243  0.78322825     0.35500
C683        C  0.12024130  0.76568573  0.84105863    -0.22000
C684        C  0.12009361  0.76720217  0.81702421    -0.22000
C685        C  0.26169180  0.90692626  0.84386518    -0.22000
C686        C  0.26119341  0.90861348  0.81987197    -0.22000
C687        C  0.16516073  0.83499271  0.90368655    -0.23000
C688        C  0.18991567  0.85905601  0.90414092    -0.23000
C689        C  0.16061684  0.84551008  0.76182763    -0.23000
C690        C  0.18516025  0.86980243  0.76227018    -0.23000
C691        C  0.13989768  0.79993424  0.87310206    -0.18400
C692        C  0.13783582  0.80549533  0.78858107    -0.18400
C693        C  0.22434638  0.89085740  0.78997141    -0.18400
C694        C  0.22626816  0.88455382  0.87465355    -0.18400
H695        H  0.10965657  0.74717058  0.85134595     0.14500
H696        H  0.10916999  0.75011342  0.80515947     0.14500
H697        H  0.27973841  0.91709891  0.85477886     0.14500
H698        H  0.27878606  0.92029200  0.80870603     0.14500
H699        H  0.15206065  0.82506962  0.91860004     0.12800
H700        H  0.19966671  0.87145162  0.91947480     0.12800
H701        H  0.14579275  0.83848392  0.74779616     0.12800
H702        H  0.19299997  0.88511256  0.74862564     0.12800
H703        H  0.15460060  0.83099931  0.83201596     0.26100
H704        H  0.19689788  0.87194600  0.83265278     0.26100
N705        N  0.48202823  0.47527528  0.50057873    -0.36700
N706        N  0.51853871  0.51305520  0.53602848    -0.57300
N707        N  0.55135429  0.55134473  0.49925889    -0.36700
N708        N  0.51349478  0.51513704  0.46403999    -0.57300
C709        C  0.46750805  0.46271323  0.52012749     0.26900
C710        C  0.46534012  0.46335438  0.48197725     0.26900
C711        C  0.56236842  0.56698427  0.51855500     0.26900
C712        C  0.55921587  0.56846489  0.48071348     0.26900
C713        C  0.50300414  0.49122157  0.54986592     0.35500
C714        C  0.54055523  0.53069226  0.54886325     0.35500
C715        C  0.49616348  0.49398373  0.45026595     0.35500
C716        C  0.53244773  0.53438964  0.44970215     0.35500
C717        C  0.44150965  0.44207228  0.51374877    -0.22000
C718        C  0.44011816  0.44253743  0.48976371    -0.22000
C719        C  0.57739843  0.59432356  0.51221554    -0.22000
C720        C  0.57543801  0.59525636  0.48832171    -0.22000
C721        C  0.51499055  0.49528611  0.57174112    -0.23000
C722        C  0.53894763  0.52004703  0.57098587    -0.23000
C723        C  0.50397463  0.49997413  0.42702682    -0.23000
C724        C  0.52701188  0.52555197  0.42668035    -0.23000
C725        C  0.47742042  0.46836571  0.54347633    -0.18400
C726        C  0.47223227  0.47021151  0.45808766    -0.18400
C727        C  0.55350867  0.56053250  0.45697570    -0.18400
C728        C  0.56099735  0.55711629  0.54149089    -0.18400
H729        H  0.42517632  0.42795095  0.52513228     0.14500
H730        H  0.42246599  0.42900530  0.47925890     0.14500
H731        H  0.58891476  0.61177107  0.52360826     0.14500
H732        H  0.58508154  0.61357563  0.47772416     0.14500
H733        H  0.50735293  0.48190056  0.58676197     0.12800
H734        H  0.55324328  0.52931869  0.58529716     0.12800
H735        H  0.49391565  0.48736920  0.41186605     0.12800
H736        H  0.53819733  0.53655579  0.41122397     0.12800
H737        H  0.50278442  0.48941733  0.49976506     0.26100
H738        H  0.54210119  0.53019057  0.49853825     0.26100
C739        C  0.42745074  0.41085613  0.59731810    -0.06200
C740        C  0.42056946  0.42958852  0.58840072    -0.17300
C741        C  0.43674707  0.44893512  0.57139961     0.11000
C742        C  0.46002479  0.44917792  0.56235877    -0.06100
C743        C  0.46711777  0.43075237  0.57139052    -0.17400
C744        C  0.45172780  0.41230905  0.58914579     0.11000
S745        S  0.42612292  0.47219907  0.56153873    -0.32300
S746        S  0.46543393  0.39268015  0.60149268    -0.32300
H747        H  0.45738921  0.39386617  0.62454401     0.29000
H748        H  0.45220880  0.49368141  0.55522931     0.29000
H749        H  0.40223152  0.42898415  0.59449486     0.19600
H750        H  0.48530539  0.43127966  0.56493473     0.19600
C751        C  0.26913121  0.33333360  0.73915722    -0.06200
C752        C  0.28047408  0.35657653  0.75362485    -0.17300
C753        C  0.26477834  0.35996077  0.77076705     0.11000
C754        C  0.23697001  0.33960802  0.77367845    -0.06100
C755        C  0.22556637  0.31645175  0.75915172    -0.17400
C756        C  0.24115795  0.31322025  0.74184790     0.11000
S757        S  0.28161782  0.39044700  0.78858387    -0.32300
S758        S  0.22376630  0.28348763  0.72326966    -0.32300
H759        H  0.23857307  0.29666366  0.70294182     0.29000
H760        H  0.25836528  0.39231676  0.79319238     0.29000
H761        H  0.30189033  0.37205159  0.75181507     0.19600
H762        H  0.20420256  0.30089494  0.76117328     0.19600
C763        C  0.34408279  0.20406368  0.66696819    -0.06200
C764        C  0.34441085  0.19324031  0.64492042    -0.17300
C765        C  0.34205639  0.16761431  0.64265554     0.11000
C766        C  0.33976793  0.15239374  0.66289133    -0.06100
C767        C  0.33935636  0.16308112  0.68492401    -0.17400
C768        C  0.34203106  0.18885412  0.68723022     0.11000
S769        S  0.34060209  0.15492062  0.61342991    -0.32300
S770        S  0.34473697  0.20178588  0.71653081    -0.32300
H771        H  0.36443561  0.22894502  0.71086747     0.29000
H772        H  0.32183418  0.12739340  0.61880986     0.29000
H773        H  0.34562419  0.20443091  0.62921424     0.19600
H774        H  0.33810456  0.15174488  0.70055358     0.19600
C775        C  0.24273992  0.91128275  0.77225232    -0.06200
C776        C  0.25240876  0.93907464  0.77642697    -0.17300
C777        C  0.26849150  0.95907215  0.75995664     0.11000
C778        C  0.27338366  0.95112069  0.73779189    -0.06100
C779        C  0.26465924  0.92338868  0.73405776    -0.17400
C780        C  0.25023087  0.90363281  0.75123410     0.11000
S781        S  0.28356030  0.99418649  0.76921489    -0.32300
S782        S  0.24209175  0.86909803  0.74526983    -0.32300
H783        H  0.24197183  0.86176719  0.76876064     0.29000
H784        H  0.30835052  0.00319269  0.75724872     0.29000
H785        H  0.24769460  0.94528809  0.79287625     0.19600
H786        H  0.26886452  0.91688673  0.71754474     0.19600
C787        C  0.62024249  0.61177274  0.59212562    -0.06200
C788        C  0.62865157  0.60319974  0.57233504    -0.17300
C789        C  0.60986202  0.58502338  0.55601467     0.11000
C790        C  0.58179860  0.57580966  0.55878030    -0.06100
C791        C  0.57329583  0.58468937  0.57821555    -0.17400
C792        C  0.59195642  0.60177493  0.59522255     0.11000
S793        S  0.62312068  0.57440153  0.53210245    -0.32300
S794        S  0.57783730  0.60818711  0.62100101    -0.32300
H795        H  0.59566078  0.60584922  0.63655796     0.29000
H796        H  0.59999032  0.54812794  0.52958165     0.29000
H797        H  0.65014056  0.61061521  0.56947511     0.19600
H798        H  0.55174967  0.57749534  0.58051132     0.19600
C799        C  0.69925770  0.76344775  0.73687123    -0.06200
C800        C  0.72144340  0.78897579  0.74360144    -0.17300
C801        C  0.71903454  0.80419777  0.76171318     0.11000
C802        C  0.69368858  0.79401253  0.77319825    -0.06100
C803        C  0.67165234  0.76831212  0.76688638    -0.17400
C804        C  0.67425701  0.75273931  0.74918167     0.11000
S805        S  0.74884007  0.83667245  0.76895999    -0.32300
S806        S  0.64539323  0.71895365  0.74411401    -0.32300
H807        H  0.66118753  0.70671773  0.74021075     0.29000
H808        H  0.74208808  0.83725582  0.79252150     0.29000
H809        H  0.74080685  0.79730973  0.73451163     0.19600
H810        H  0.65231232  0.76027277  0.77597042     0.19600
C811        C  0.87195932  0.68318078  0.66780195    -0.06200
C812        C  0.86085776  0.68149169  0.64553126    -0.17300
C813        C  0.83869267  0.68534653  0.64234217     0.11000
C814        C  0.82655868  0.69017486  0.66196443    -0.06100
C815        C  0.83780560  0.69206556  0.68423331    -0.17400
C816        C  0.86007619  0.68834721  0.68740203     0.11000
S817        S  0.82815100  0.68554788  0.61265995    -0.32300
S818        S  0.87113352  0.68876805  0.71701854    -0.32300
H819        H  0.87748954  0.66814909  0.71347924     0.29000
H820        H  0.82191069  0.70621402  0.61644829     0.29000
H821        H  0.87014794  0.67808485  0.63032421     0.19600
H822        H  0.82852044  0.69542606  0.69946387     0.19600
C823        C  0.07859322  0.75615653  0.73550993    -0.06200
C824        C  0.07008963  0.76195876  0.75677559    -0.17300
C825        C  0.08884889  0.77841724  0.77392602     0.11000
C826        C  0.11700453  0.78830762  0.77060751    -0.06100
C827        C  0.12558232  0.78204639  0.74966097    -0.17400
C828        C  0.10694731  0.76700987  0.73184401     0.11000
S829        S  0.07547845  0.78663798  0.79931592    -0.32300
S830        S  0.12114446  0.76456447  0.70439710    -0.32300
H831        H  0.10311604  0.76872135  0.69062604     0.29000
H832        H  0.09811431  0.81313523  0.80242876     0.29000
H833        H  0.04856616  0.75398622  0.76003326     0.19600
H834        H  0.14717361  0.78986958  0.74681989     0.19600
C835        C  0.66888732  0.78005848  0.89333047    -0.06200
C836        C  0.68648167  0.78860434  0.91271519    -0.17300
C837        C  0.68408678  0.77012444  0.93007948     0.11000
C838        C  0.66457632  0.74187981  0.92757617    -0.06100
C839        C  0.64697231  0.73342414  0.90810050    -0.17400
C840        C  0.64853650  0.75211667  0.89132784     0.11000
S841        S  0.70522208  0.78445433  0.95563589    -0.32300
S842        S  0.62382378  0.73898682  0.86789677    -0.32300
H843        H  0.62287970  0.76296822  0.86454543     0.29000
H844        H  0.68457013  0.76741331  0.97149956     0.29000
H845        H  0.70181572  0.81007257  0.91461813     0.19600
H846        H  0.63171615  0.71199914  0.90587041     0.19600
C847        C  0.48367041  0.48680626  0.00161890    -0.06200
C848        C  0.49591651  0.49755449  0.02337202    -0.17300
C849        C  0.51913123  0.52372675  0.02529621     0.11000
C850        C  0.53134493  0.53932172  0.00489902    -0.06100
C851        C  0.51875262  0.52878870  0.98318918    -0.17400
C852        C  0.49529464  0.50278937  0.98129343     0.11000
S853        S  0.53093428  0.53662765  0.05439152    -0.32300
S854        S  0.48234817  0.49068288  0.95225983    -0.32300
H855        H  0.47529866  0.46349021  0.95647698     0.29000
H856        H  0.53900983  0.56387936  0.04906929     0.29000
H857        H  0.48676630  0.48581763  0.03913144     0.19600
H858        H  0.52788353  0.54042852  0.96738861     0.19600
C859        C  0.27993291  0.35513399  0.92936227    -0.06200
C860        C  0.28914133  0.37297455  0.91005943    -0.17300
C861        C  0.27103837  0.37226889  0.89314636     0.11000
C862        C  0.24294831  0.35240828  0.89468418    -0.06100
C863        C  0.23361139  0.33444629  0.91381627    -0.17400
C864        C  0.25153377  0.33610667  0.93143724     0.11000
S865        S  0.28505638  0.39755367  0.87020824    -0.32300
S866        S  0.23638717  0.31477718  0.95673805    -0.32300
H867        H  0.25356703  0.33501575  0.97288470     0.29000
H868        H  0.26184108  0.39998901  0.86743791     0.29000
H869        H  0.31070215  0.38784214  0.90810475     0.19600
H870        H  0.21199200  0.31952241  0.91536528     0.19600
C871        C  0.78029993  0.67192489  0.10527428    -0.06200
C872        C  0.78102343  0.69530006  0.09652682    -0.17300
C873        C  0.76146473  0.69323632  0.08045079     0.11000
C874        C  0.74140245  0.66721193  0.07176836    -0.06100
C875        C  0.74109520  0.64389533  0.08036190    -0.17400
C876        C  0.75993242  0.64591030  0.09714753     0.11000
S877        S  0.76223903  0.72443359  0.07325701    -0.32300
S878        S  0.75718998  0.61450584  0.10711823    -0.32300
H879        H  0.76748066  0.62361976  0.12974772     0.29000
H880        H  0.73366061  0.71256995  0.07377691     0.29000
H881        H  0.79642484  0.71528079  0.10293825     0.19600
H882        H  0.72600880  0.62379717  0.07395714     0.19600
C883        C  0.75564212  0.07819940  0.26155464    -0.06200
C884        C  0.74587777  0.09316500  0.24978736    -0.17300
C885        C  0.76165205  0.11246952  0.23267580     0.11000
C886        C  0.78772109  0.11676243  0.22700143    -0.06100
C887        C  0.79768147  0.10220059  0.23900731    -0.17400
C888        C  0.78219155  0.08334220  0.25638734     0.11000
S889        S  0.74712061  0.13043866  0.21848336    -0.32300
S890        S  0.79807235  0.06753272  0.27192115    -0.32300
H891        H  0.78590730  0.06660593  0.29360502     0.29000
H892        H  0.77186746  0.15383149  0.21210235     0.29000
H893        H  0.72558490  0.08940941  0.25362017     0.19600
H894        H  0.81791043  0.10587349  0.23497351     0.19600
C895        C  0.67204986  0.86830713  0.32415164    -0.06200
C896        C  0.67474836  0.85769262  0.34544140    -0.17300
C897        C  0.67647168  0.83402417  0.34619319     0.11000
C898        C  0.67477609  0.81999091  0.32521624    -0.06100
C899        C  0.67222086  0.83066366  0.30389220    -0.17400
C900        C  0.67042608  0.85433464  0.30314995     0.11000
S901        S  0.68241315  0.82380845  0.37435186    -0.32300
S902        S  0.66425270  0.86450343  0.27506246    -0.32300
H903        H  0.64696172  0.87346693  0.28367187     0.29000
H904        H  0.69957867  0.81464077  0.36585446     0.29000
H905        H  0.67641592  0.86842944  0.36161732     0.19600
H906        H  0.67054587  0.81988174  0.28774248     0.19600
C907        C  0.60485127  0.62001262  0.40529717    -0.06200
C908        C  0.57813427  0.61463694  0.40918034    -0.17300
C909        C  0.56112070  0.59570823  0.42602370     0.11000
C910        C  0.57056536  0.58103881  0.43890961    -0.06100
C911        C  0.59722976  0.58641770  0.43519745    -0.17400
C912        C  0.61460798  0.60603764  0.41894982     0.11000
S913        S  0.52771464  0.59132367  0.43036818    -0.32300
S914        S  0.64939212  0.61344651  0.41776914    -0.32300
H915        H  0.66095607  0.64181043  0.41485402     0.29000
H916        H  0.52597441  0.58558654  0.45441632     0.29000
H917        H  0.57041227  0.62532416  0.39904386     0.19600
H918        H  0.60477211  0.57568592  0.44551390     0.19600
C919        C  0.75288331  0.69019902  0.25812600    -0.06200
C920        C  0.74328460  0.66497790  0.24673033    -0.17300
C921        C  0.75987617  0.66092320  0.23102819     0.11000
C922        C  0.78675749  0.68255400  0.22649728    -0.06100
C923        C  0.79655492  0.70752663  0.23820846    -0.17400
C924        C  0.78012364  0.71149427  0.25407972     0.11000
S925        S  0.74528140  0.62807803  0.21671828    -0.32300
S926        S  0.79557132  0.74391089  0.26910809    -0.32300
H927        H  0.78256164  0.73290168  0.29061579     0.29000
H928        H  0.77000304  0.62869722  0.21296288     0.29000
H929        H  0.72250668  0.64846716  0.24971740     0.19600
H930        H  0.81719386  0.72412778  0.23484221     0.19600
C931        C  0.35500373  0.23932146  0.10392641    -0.06200
C932        C  0.33380754  0.24466314  0.10026255    -0.17300
C933        C  0.33597047  0.26342704  0.08331671     0.11000
C934        C  0.35964974  0.27683556  0.06912502    -0.06100
C935        C  0.38087035  0.27145496  0.07287384    -0.17400
C936        C  0.37891871  0.25308283  0.09014492     0.11000
S937        S  0.30847960  0.27039461  0.08174518    -0.32300
S938        S  0.40761095  0.24812819  0.09367860    -0.32300
H939        H  0.40371026  0.24162563  0.11760090     0.29000
H940        H  0.32556355  0.29867281  0.07809463     0.29000
H941        H  0.31558044  0.23442231  0.11101168     0.19600
H942        H  0.39920711  0.28172243  0.06226660     0.19600
C943        C  0.41353119  0.41706847  0.40652877    -0.06200
C944        C  0.41458495  0.44132018  0.41353837    -0.17300
C945        C  0.43324365  0.45872894  0.43033233     0.11000
C946        C  0.45200408  0.45232727  0.44015869    -0.06100
C947        C  0.45143003  0.42841949  0.43306205    -0.17400
C948        C  0.43222081  0.41054435  0.41667818     0.11000
S949        S  0.43215334  0.48890361  0.43828005    -0.32300
S950        S  0.43173067  0.37916759  0.41080301    -0.32300
H951        H  0.40304633  0.36278806  0.41072512     0.29000
H952        H  0.44116592  0.49094693  0.46145038     0.29000
H953        H  0.40063329  0.44682119  0.40592191     0.19600
H954        H  0.46564914  0.42334104  0.44080514     0.19600
C955        C  0.33845022  0.23464021  0.22456229    -0.06200
C956        C  0.32056759  0.24427477  0.22025072    -0.17300
C957        C  0.31892034  0.26267879  0.23547216     0.11000
C958        C  0.33399643  0.27030992  0.25663527    -0.06100
C959        C  0.35212487  0.26086044  0.26082421    -0.17400
C960        C  0.35504861  0.24379943  0.24481635     0.11000
S961        S  0.29898447  0.27723330  0.22569533    -0.32300
S962        S  0.38060752  0.23489648  0.25112214    -0.32300
H963        H  0.38663612  0.23243386  0.22770299     0.29000
H964        H  0.31703180  0.30349251  0.23470198     0.29000
H965        H  0.30844950  0.23810304  0.20437595     0.19600
H966        H  0.36421543  0.26683121  0.27669313     0.19600
C967        C  0.15647289  0.34141258  0.34012063    -0.06200
C968        C  0.15527690  0.31616407  0.33863016    -0.17300
C969        C  0.17899558  0.31446531  0.33930220     0.11000
C970        C  0.20493992  0.33864107  0.34092562    -0.06100
C971        C  0.20615180  0.36388740  0.34254009    -0.17400
C972        C  0.18243650  0.36559943  0.34177070     0.11000
S973        S  0.17444810  0.28068886  0.33944193    -0.32300
S974        S  0.18708138  0.39940432  0.34115956    -0.32300
H975        H  0.16614741  0.39278140  0.32479574     0.29000
H976        H  0.19584454  0.28724332  0.35527965     0.29000
H977        H  0.13557601  0.29742981  0.33765366     0.19600
H978        H  0.22586490  0.38261853  0.34342929     0.19600
C979        C  0.95363165  0.27085785  0.26262680    -0.06200
C980        C  0.94635562  0.24328549  0.26061505    -0.17300
C981        C  0.92721484  0.22582295  0.24405007     0.11000
C982        C  0.91447899  0.23584869  0.22926302    -0.06100
C983        C  0.92124742  0.26316161  0.23145200    -0.17400
C984        C  0.94083067  0.28081932  0.24765373     0.11000
S985        S  0.92005077  0.19105457  0.24265148    -0.32300
S986        S  0.94968666  0.31608145  0.24700866    -0.32300
H987        H  0.97795429  0.32664848  0.24931573     0.29000
H988        H  0.91359522  0.18681942  0.21872246     0.29000
H989        H  0.95582024  0.23525104  0.27196160     0.19600
H990        H  0.91170897  0.27097787  0.21993233     0.19600
C991        C  0.08642637  0.74093311  0.92407091    -0.06200
C992        C  0.11350043  0.74685882  0.92164505    -0.17300
C993        C  0.13118977  0.76570631  0.90511402     0.11000
C994        C  0.12192826  0.77950576  0.89080475    -0.06100
C995        C  0.09501611  0.77388706  0.89327584    -0.17400
C996        C  0.07709814  0.75459268  0.90950890     0.11000
S997        S  0.16527962  0.77118678  0.90310521    -0.32300
S998        S  0.04237245  0.74740586  0.90975035    -0.32300
H999        H  0.03052495  0.71905251  0.91293231     0.29000
H1000       H  0.16855012  0.77650953  0.87896135     0.29000
H1001       H  0.12095208  0.73658277  0.93266547     0.19600
H1002       H  0.08779949  0.78429651  0.88215109     0.19600
C1003       C  0.93392912  0.66336648  0.06912861    -0.06200
C1004       C  0.94237927  0.68962046  0.07796141    -0.17300
C1005       C  0.92697991  0.69382709  0.09483434     0.11000
C1006       C  0.90294905  0.67116329  0.10384476    -0.06100
C1007       C  0.89433249  0.64500765  0.09493182    -0.17400
C1008       C  0.90899613  0.64094882  0.07731045     0.11000
S1009       S  0.93943305  0.72848319  0.10443200    -0.32300
S1010       S  0.89359508  0.60699718  0.06510079    -0.32300
H1011       H  0.90183822  0.61592759  0.04200412     0.29000
H1012       H  0.91396989  0.72487340  0.11090118     0.29000
H1013       H  0.96128039  0.70705396  0.07183098     0.19600
H1014       H  0.87550531  0.62767222  0.10134202     0.19600
C1015       C  0.01606830  0.53914278  0.00167525    -0.06200
C1016       C  0.01509374  0.52760078  0.02359290    -0.17300
C1017       C  0.01651527  0.50385256  0.02563317     0.11000
C1018       C  0.01819992  0.49066449  0.00522201    -0.06100
C1019       C  0.01899597  0.50212704  0.98330439    -0.17400
C1020       C  0.01759011  0.52586973  0.98127143     0.11000
S1021       S  0.01798909  0.49275124  0.05481713    -0.32300
S1022       S  0.01604018  0.53694920  0.95209787    -0.32300
H1023       H  0.99704890  0.54496329  0.95769148     0.29000
H1024       H  0.03739734  0.48524850  0.04934634     0.29000
H1025       H  0.01424720  0.53774510  0.03937735     0.19600
H1026       H  0.01982615  0.49199956  0.96750376     0.19600
C1027       C  0.09069163  0.36205865  0.92895332    -0.06200
C1028       C  0.11240779  0.38531468  0.91831256    -0.17300
C1029       C  0.12787859  0.38303564  0.90041239     0.11000
C1030       C  0.12249259  0.35691608  0.89350339    -0.06100
C1031       C  0.10085571  0.33360709  0.90396199    -0.17400
C1032       C  0.08438718  0.33583013  0.92101214     0.11000
S1033       S  0.15459528  0.41427409  0.88748453    -0.32300
S1034       S  0.05469951  0.30449090  0.93043239    -0.32300
H1035       H  0.03751051  0.31552735  0.93128411     0.29000
H1036       H  0.15394263  0.40337990  0.86524647     0.29000
H1037       H  0.11753179  0.40557545  0.92399320     0.19600
H1038       H  0.09632257  0.31351312  0.89828037     0.19600
C1039       C  0.94894919  0.28648201  0.07828381    -0.06200
C1040       C  0.94078601  0.29336684  0.09913196    -0.17300
C1041       C  0.92250902  0.27329808  0.11453107     0.11000
C1042       C  0.91297275  0.24542050  0.10975833    -0.06100
C1043       C  0.92143938  0.23845714  0.08912655    -0.17400
C1044       C  0.93844942  0.25850044  0.07299909     0.11000
S1045       S  0.91191746  0.28474884  0.13976798    -0.32300
S1046       S  0.94396624  0.24669952  0.04539618    -0.32300
H1047       H  0.94176753  0.26618888  0.03196477     0.29000
H1048       H  0.88533401  0.26183785  0.14095864     0.29000
H1049       H  0.94842978  0.31464673  0.10339473     0.19600
H1050       H  0.91395549  0.21712253  0.08519882     0.19600
C1051       C  0.28408999  0.92960991  0.92910099    -0.06200
C1052       C  0.27045860  0.94100251  0.91753944    -0.17300
C1053       C  0.25150287  0.92666553  0.89975511     0.11000
C1054       C  0.24624830  0.90055266  0.89324739    -0.06100
C1055       C  0.25951063  0.88893912  0.90485731    -0.17400
C1056       C  0.27802098  0.90294433  0.92292843     0.11000
S1057       S  0.23375310  0.94147510  0.88558745    -0.32300
S1058       S  0.29172337  0.88488169  0.93818245    -0.32300
H1059       H  0.29123523  0.89537406  0.96037423     0.29000
H1060       H  0.24653326  0.96636242  0.89798343     0.29000
H1061       H  0.27494828  0.96133399  0.92225389     0.19600
H1062       H  0.25492295  0.86855776  0.90009247     0.19600
C1063       C  0.35017089  0.11455574  0.10652377    -0.06200
C1064       C  0.32884088  0.08734100  0.10392821    -0.17300
C1065       C  0.33102572  0.06951520  0.08831785     0.11000
C1066       C  0.35482312  0.07927569  0.07442778    -0.06100
C1067       C  0.37594977  0.10660181  0.07688311    -0.17400
C1068       C  0.37404981  0.12419301  0.09286034     0.11000
S1069       S  0.30348863  0.03437529  0.08806118    -0.32300
S1070       S  0.40292065  0.15858014  0.09503925    -0.32300
H1071       H  0.39985733  0.16219151  0.11894488     0.29000
H1072       H  0.32046420  0.02327303  0.08534451     0.29000
H1073       H  0.31063395  0.07978100  0.11460664     0.19600
H1074       H  0.39427466  0.11432279  0.06634063     0.19600
C1075       C  0.48349923  0.00015867  0.01058226    -0.06200
C1076       C  0.49526639  0.99801071  0.98970156    -0.17300
C1077       C  0.51963841  0.99763742  0.98971285     0.11000
C1078       C  0.53249016  0.99876062  0.01119785    -0.06100
C1079       C  0.52063809  0.00075075  0.03211686    -0.17400
C1080       C  0.49614712  0.00099801  0.03208788     0.11000
S1081       S  0.53400262  0.99758972  0.96159437    -0.32300
S1082       S  0.48130858  0.00057545  0.06008613    -0.32300
H1083       H  0.45407733  0.98333340  0.05288312     0.29000
H1084       H  0.56120836  0.01594485  0.96823155     0.29000
H1085       H  0.48591329  0.99762355  0.97309279     0.19600
H1086       H  0.53007615  0.00122303  0.04870031     0.19600
C1087       C  0.67168355  0.90451489  0.89420439    -0.06200
C1088       C  0.65214087  0.91232017  0.89112570    -0.17300
C1089       C  0.64950197  0.92943296  0.90718219     0.11000
C1090       C  0.66520813  0.93736412  0.92798319    -0.06100
C1091       C  0.68487574  0.92967381  0.93102191    -0.17400
C1092       C  0.68875589  0.91401084  0.91417468     0.11000
S1093       S  0.62738781  0.94208728  0.89900065    -0.32300
S1094       S  0.71597074  0.90711701  0.91914298    -0.32300
H1095       H  0.72197679  0.90619754  0.89541264     0.29000
H1096       H  0.64412880  0.96827399  0.90870326     0.29000
H1097       H  0.63948555  0.90579477  0.87556276     0.19600
H1098       H  0.69739282  0.93592542  0.94665233     0.19600
C1099       C  0.74466413  0.09060915  0.07209744    -0.06200
C1100       C  0.76469252  0.08445290  0.07878560    -0.17300
C1101       C  0.78525549  0.10085149  0.09482443     0.11000
C1102       C  0.78547627  0.12359077  0.10508342    -0.06100
C1103       C  0.76598653  0.13020525  0.09803077    -0.17400
C1104       C  0.74616003  0.11452647  0.08125899     0.11000
S1105       S  0.80989771  0.09101176  0.10209885    -0.32300
S1106       S  0.72459256  0.12721639  0.07148777    -0.32300
H1107       H  0.72356404  0.11902795  0.04808074     0.29000
H1108       H  0.83114114  0.11706938  0.10881063     0.29000
H1109       H  0.76406834  0.06640382  0.07182966     0.19600
H1110       H  0.76653670  0.14805134  0.10543101     0.19600
C1111       C  0.99766713  0.56663836  0.55957309    -0.06200
C1112       C  0.97770395  0.57379248  0.55634487    -0.17300
C1113       C  0.97484023  0.59106329  0.57210248     0.11000
C1114       C  0.99129652  0.60034390  0.59254947    -0.06100
C1115       C  0.01119435  0.59294178  0.59572920    -0.17400
C1116       C  0.01495656  0.57682646  0.57930585     0.11000
S1117       S  0.95144179  0.60205605  0.56374946    -0.32300
S1118       S  0.04246815  0.57038851  0.58434570    -0.32300
H1119       H  0.04855533  0.56936958  0.56065152     0.29000
H1120       H  0.96877905  0.62932561  0.57089313     0.29000
H1121       H  0.96489541  0.56662954  0.54088281     0.19600
H1122       H  0.02416621  0.59992265  0.61107497     0.19600
C1123       C  0.02518373  0.45716798  0.44060588    -0.06200
C1124       C  0.00206894  0.43339967  0.43230541    -0.17300
C1125       C  0.00419651  0.41696150  0.41499689     0.11000
C1126       C  0.03021963  0.42449569  0.40565935    -0.06100
C1127       C  0.05328973  0.44849718  0.41397675    -0.17400
C1128       C  0.05109208  0.46478495  0.43127797     0.11000
S1129       S  0.97367262  0.38567469  0.40639855    -0.32300
S1130       S  0.08207381  0.49515295  0.44048978    -0.32300
H1131       H  0.07364269  0.49603820  0.46341306     0.29000
H1132       H  0.95478616  0.39055214  0.41808024     0.29000
H1133       H  0.98229461  0.42767947  0.43963179     0.19600
H1134       H  0.07332177  0.45464051  0.40696984     0.19600
C1135       C  0.45081491  0.01960331  0.55604732    -0.06200
C1136       C  0.44487205  0.04038442  0.55246161    -0.17300
C1137       C  0.42660814  0.04318424  0.56694382     0.11000
C1138       C  0.41503422  0.02583468  0.58663669    -0.06100
C1139       C  0.42088344  0.00483195  0.59004303    -0.17400
C1140       C  0.43803851  0.00115323  0.57474773     0.11000
S1141       S  0.41762739  0.06792895  0.55794477    -0.32300
S1142       S  0.44258108  0.97244321  0.57996274    -0.32300
H1143       H  0.44708537  0.96838930  0.55649681     0.29000
H1144       H  0.38977654  0.05129282  0.56361765     0.29000
H1145       H  0.45400382  0.05410866  0.53773680     0.19600
H1146       H  0.41206396  0.99108336  0.60476342     0.19600
C1147       C  0.57465195  0.00486201  0.44405075    -0.06200
C1148       C  0.60140155  0.02639695  0.44001575    -0.17300
C1149       C  0.61828941  0.02396682  0.42350804     0.11000
C1150       C  0.60799413  0.99974631  0.41001895    -0.06100
C1151       C  0.58135142  0.97801962  0.41447754    -0.17400
C1152       C  0.56474158  0.98019320  0.43141514     0.11000
S1153       S  0.65308391  0.05194326  0.42148932    -0.32300
S1154       S  0.53095218  0.95094295  0.43574767    -0.32300
H1155       H  0.52818955  0.95621324  0.45931117     0.29000
H1156       H  0.66438880  0.03524150  0.41796664     0.29000
H1157       H  0.60923601  0.04518024  0.44997342     0.19600
H1158       H  0.57322341  0.95923842  0.40447849     0.19600
C1159       C  0.57470236  0.02225556  0.56495455    -0.06200
C1160       C  0.59635590  0.04852675  0.57023731    -0.17300
C1161       C  0.61589294  0.05265793  0.58711623     0.11000
C1162       C  0.61491308  0.02980352  0.59806908    -0.06100
C1163       C  0.59246956  0.00357424  0.59337191    -0.17400
C1164       C  0.57212808  0.99965506  0.57738712     0.11000
S1165       S  0.64032687  0.08765359  0.59463444    -0.32300
S1166       S  0.54399892  0.96524751  0.57296322    -0.32300
H1167       H  0.52467491  0.97240166  0.56642764     0.29000
H1168       H  0.64141191  0.08226174  0.61848932     0.29000
H1169       H  0.59782492  0.06601266  0.56128962     0.19600
H1170       H  0.59097542  0.98582644  0.60179106     0.19600
C1171       C  0.68831982  0.91391988  0.77259869    -0.06200
C1172       C  0.71318744  0.93873879  0.77073696    -0.17300
C1173       C  0.71668006  0.95881563  0.75468552     0.11000
C1174       C  0.69602150  0.95297146  0.73789708    -0.06100
C1175       C  0.67114324  0.92792663  0.73969507    -0.17400
C1176       C  0.66677350  0.90889074  0.75723452     0.11000
S1177       S  0.74670895  0.99210581  0.75855561    -0.32300
S1178       S  0.63335889  0.87846632  0.75884716    -0.32300
H1179       H  0.63395579  0.87407791  0.78296525     0.29000
H1180       H  0.73317740  0.00645902  0.75367998     0.29000
H1181       H  0.72960888  0.94306828  0.78279593     0.19600
H1182       H  0.65481414  0.92302381  0.72739563     0.19600
C1183       C  0.82797771  0.14695863  0.65548815    -0.06200
C1184       C  0.83928735  0.15407486  0.67804279    -0.17300
C1185       C  0.86086556  0.18046989  0.68321458     0.11000
C1186       C  0.87217237  0.20039306  0.66530890    -0.06100
C1187       C  0.86100709  0.19316383  0.64270918    -0.17400
C1188       C  0.83944804  0.16678342  0.63754573     0.11000
S1189       S  0.87151556  0.18767960  0.71334695    -0.32300
S1190       S  0.82868548  0.15950817  0.60742945    -0.32300
H1191       H  0.82313413  0.13240569  0.60789803     0.29000
H1192       H  0.87566221  0.21427300  0.71316820     0.29000
H1193       H  0.83046418  0.13930710  0.69209172     0.19600
H1194       H  0.86972198  0.20796218  0.62867275     0.19600
C1195       C  0.99194027  0.40656777  0.59600943    -0.06200
C1196       C  0.01084965  0.43464282  0.59895666    -0.17300
C1197       C  0.01481521  0.45378083  0.58163786     0.11000
C1198       C  0.99868920  0.44506502  0.56108452    -0.06100
C1199       C  0.97985430  0.41709114  0.55807029    -0.17400
C1200       C  0.97695056  0.39778919  0.57477184     0.11000
S1201       S  0.04101876  0.48893298  0.58674938    -0.32300
S1202       S  0.95549734  0.36235047  0.56673668    -0.32300
H1203       H  0.97303696  0.35420614  0.57621697     0.29000
H1204       H  0.04789033  0.49579249  0.56311142     0.29000
H1205       H  0.02281810  0.44181236  0.61486592     0.19600
H1206       H  0.96788881  0.41014049  0.54213248     0.19600
C1207       C  0.07746084  0.33732824  0.73826936    -0.06200
C1208       C  0.09256050  0.36212667  0.75055201    -0.17300
C1209       C  0.11232258  0.36582601  0.76719115     0.11000
C1210       C  0.11678428  0.34407045  0.77215372    -0.06100
C1211       C  0.10234171  0.31965086  0.75944066    -0.17400
C1212       C  0.08332695  0.31627225  0.74228952     0.11000
S1213       S  0.13087719  0.39858271  0.78167535    -0.32300
S1214       S  0.06851618  0.28516969  0.72533735    -0.32300
H1215       H  0.06784558  0.29752089  0.70425418     0.29000
H1216       H  0.15463995  0.39768760  0.78638206     0.29000
H1217       H  0.08861809  0.37859456  0.74748111     0.19600
H1218       H  0.10620936  0.30316414  0.76273879     0.19600
C1219       C  0.41650200  0.99999995  0.40019845    -0.06200
C1220       C  0.42988633  0.02468276  0.41280317    -0.17300
C1221       C  0.44915805  0.02918140  0.43009914     0.11000
C1222       C  0.45498919  0.00841760  0.43523449    -0.06100
C1223       C  0.44226368  0.98409374  0.42222655    -0.17400
C1224       C  0.42350909  0.97983926  0.40456380     0.11000
S1225       S  0.46510870  0.06151225  0.44536251    -0.32300
S1226       S  0.41018767  0.94873808  0.38774793    -0.32300
H1227       H  0.40912140  0.96053912  0.36647837     0.29000
H1228       H  0.48972004  0.06244977  0.45050654     0.29000
H1229       H  0.42488670  0.04038232  0.40950717     0.19600
H1230       H  0.44705715  0.96831012  0.42587820     0.19600
C1231       C  0.33162817  0.07138858  0.26013111    -0.06200
C1232       C  0.35714399  0.09426908  0.25441350    -0.17300
C1233       C  0.35931750  0.11417844  0.23873687     0.11000
C1234       C  0.33556858  0.11082206  0.22777556    -0.06100
C1235       C  0.31004132  0.08856750  0.23393873    -0.17400
C1236       C  0.30770612  0.06935870  0.25043479     0.11000
S1237       S  0.39305706  0.14272715  0.23269086    -0.32300
S1238       S  0.27352798  0.04395409  0.25915706    -0.32300
H1239       H  0.28034063  0.04386677  0.28279259     0.29000
H1240       H  0.38494260  0.16144850  0.22659081     0.29000
H1241       H  0.37566864  0.09645423  0.26181694     0.19600
H1242       H  0.29173167  0.08636597  0.22600086     0.19600
C1243       C  0.15890430  0.81771574  0.32760634    -0.06200
C1244       C  0.17254986  0.82564767  0.30602435    -0.17300
C1245       C  0.19931684  0.84795643  0.30434155     0.11000
C1246       C  0.21261908  0.86346758  0.32455562    -0.06100
C1247       C  0.19897426  0.85548358  0.34612741    -0.17400
C1248       C  0.17232057  0.83308803  0.34784598     0.11000
S1249       S  0.21589011  0.85435596  0.27623192    -0.32300
S1250       S  0.15614456  0.82627895  0.37616042    -0.32300
H1251       H  0.12989704  0.81794666  0.36749817     0.29000
H1252       H  0.24203502  0.86289334  0.28527795     0.29000
H1253       H  0.16268055  0.81370461  0.29048201     0.19600
H1254       H  0.20877707  0.86739802  0.36169693     0.19600
C1255       C  0.02626798  0.61787866  0.40717313    -0.06200
C1256       C  0.04936956  0.61574424  0.41196512    -0.17300
C1257       C  0.04848290  0.59712230  0.42846655     0.11000
C1258       C  0.02375234  0.57961512  0.44023199    -0.06100
C1259       C  0.00066288  0.58160550  0.43547529    -0.17400
C1260       C  0.00171409  0.60071310  0.41945989     0.11000
S1261       S  0.07955203  0.59675936  0.43370797    -0.32300
S1262       S  0.97149641  0.60315783  0.41678693    -0.32300
H1263       H  0.98581531  0.63188433  0.41547982     0.29000
H1264       H  0.07411269  0.58849632  0.45720415     0.29000
H1265       H  0.06837427  0.62874841  0.40279933     0.19600
H1266       H  0.98177184  0.56852319  0.44478283     0.19600
C1267       C  0.94859241  0.68788065  0.25953197    -0.06200
C1268       C  0.93202770  0.66231109  0.24875138    -0.17300
C1269       C  0.91181771  0.65823450  0.23245007     0.11000
C1270       C  0.90841577  0.68035432  0.22622822    -0.06100
C1271       C  0.92448918  0.70567129  0.23732991    -0.17400
C1272       C  0.94395835  0.70949332  0.25419611     0.11000
S1273       S  0.89126416  0.62449549  0.22005569    -0.32300
S1274       S  0.96086086  0.74192458  0.26923551    -0.32300
H1275       H  0.96111710  0.73084006  0.29114563     0.29000
H1276       H  0.86796898  0.62631986  0.21559716     0.29000
H1277       H  0.93501955  0.64543343  0.25286929     0.19600
H1278       H  0.92150467  0.72252120  0.23304130     0.19600
loop_ 
_geom_bond_atom_site_label_1 
_geom_bond_atom_site_label_2 
_geom_bond_distance 
_geom_bond_site_symmetry_2 
_ccdc_geom_bond_type 
N1            N2   1.322       .  A
N1            C5   1.349       .  A
N1           Cu9   2.094       .  S
N2            C3   1.344       .  A
N2           Cu8   2.069       .  S
C3            C4   1.384       .  A
C3            H6   1.082       .  S
C4            C5   1.391       .  A
C4         C1255   1.489       .  S
C5            H7   1.081   1_455  S
Cu8          N11   2.068       .  S
Cu9          N19   2.094   1_455  S
Cu10         N12   2.085       .  S
Cu10         N18   2.086       .  S
N11          N12   1.321       .  A
N11          C15   1.344       .  A
N12          C13   1.348       .  A
C13          C14   1.387       .  A
C13          H16   1.082       .  S
C14          C15   1.383       .  A
C14        C1243   1.482       .  S
C15          H17   1.082       .  S
N18          N19   1.324   1_455  A
N18          C22   1.345   1_455  A
N19          C20   1.350       .  A
C20          C21   1.388       .  A
C20          H23   1.082       .  S
C21          C22   1.386       .  A
C21        C1267   1.490       .  S
C22          H24   1.082   1_655  S
N25          N26   1.321       .  A
N25          C29   1.348       .  A
N25         Cu33   2.085       .  S
N26          C27   1.342       .  A
N26         Cu32   2.068   1_545  S
C27          C28   1.385       .  A
C27          H30   1.080       .  S
C28          C29   1.390       .  A
C28        C1231   1.489       .  S
C29          H31   1.082       .  S
Cu32         N35   2.069       .  S
Cu33         N43   2.085       .  S
Cu34         N36   2.074       .  S
Cu34         N42   2.074       .  S
N35          N36   1.321       .  A
N35          C39   1.344       .  A
N36          C37   1.346       .  A
C37          C38   1.386       .  A
C37          H40   1.082       .  S
C38          C39   1.385       .  A
C38        C1246   1.482       .  S
C39          H41   1.082       .  S
N42          N43   1.323   1_565  A
N42          C46   1.344       .  A
N43          C44   1.347       .  A
C44          C45   1.386   1_545  A
C44          H47   1.082       .  S
C45          C46   1.384       .  A
C45        C1219   1.482       .  S
C46          H48   1.082       .  S
N49          N50   1.323       .  A
N49          C53   1.351       .  A
N49         Cu57   2.098       .  S
N50          C51   1.344       .  A
N50         Cu56   2.078   1_455  S
C51          C52   1.385       .  A
C51          H54   1.082       .  S
C52          C53   1.390       .  A
C52        C1207   1.490       .  S
C53          H55   1.082       .  S
Cu56         N59   2.077       .  S
Cu57         N67   2.098   1_455  S
Cu58         N60   2.077       .  S
Cu58         N66   2.077       .  S
N59          N60   1.321       .  A
N59          C63   1.346       .  A
N60          C61   1.345       .  A
C61          C62   1.387       .  A
C61          H64   1.082       .  S
C62          C63   1.388       .  A
C62        C1186   1.488       .  S
C63          H65   1.081       .  S
N66          N67   1.323       .  A
N66          C70   1.345       .  A
N67          C68   1.349   1_655  A
C68          C69   1.391   1_455  A
C68          H71   1.082       .  S
C69          C70   1.387       .  A
C69        C1195   1.495       .  S
C70          H72   1.081       .  S
N73          N74   1.322   1_565  A
N73          C77   1.348       .  A
N73         Cu81   2.092   1_565  S
N74          C75   1.343   1_545  A
N74         Cu80   2.076       .  S
C75          C76   1.388       .  A
C75          H78   1.080       .  S
C76          C77   1.392       .  A
C76        C1174   1.496       .  S
C77          H79   1.082       .  S
Cu80         N83   2.076       .  S
Cu81         N91   2.091       .  S
Cu82         N84   2.069       .  S
Cu82         N90   2.069       .  S
N83          N84   1.320       .  A
N83          C87   1.346       .  A
N84          C85   1.344       .  A
C85          C86   1.386       .  A
C85          H88   1.081       .  S
C86          C87   1.388       .  A
C86        C1183   1.486       .  S
C87          H89   1.082       .  S
N90          N91   1.321       .  A
N90          C94   1.343       .  A
N91          C92   1.348       .  A
C92          C93   1.391       .  A
C92          H95   1.082   1_545  S
C93          C94   1.386       .  A
C93        C1162   1.491       .  S
C94          H96   1.081       .  S
N97         C102   1.355       .  A
N97         C101   1.353       .  A
N97         H129   1.037       .  S
N98         C105   1.352       .  A
N98         C106   1.352       .  A
N99         C104   1.353       .  A
N99         C103   1.354       .  A
N99         H130   1.038       .  S
N100        C107   1.351       .  A
N100        C108   1.351       .  A
C101        C109   1.388       .  A
C101        C117   1.417       .  A
C102        C118   1.417       .  A
C102        C110   1.386   1_545  A
C103        C111   1.387       .  A
C103        C120   1.416       .  A
C104        C119   1.415       .  A
C104        C112   1.387   1_545  A
C105        C117   1.414       .  A
C105        C113   1.386       .  A
C106        C120   1.414       .  A
C106        C114   1.386       .  A
C107        C115   1.386       .  A
C107        C118   1.413       .  A
C108        C116   1.386       .  A
C108        C119   1.412       .  A
C109        C110   1.376   1_545  A
C109        H121   1.082   1_545  S
C110        H122   1.082       .  S
C111        C112   1.375   1_545  A
C111        H123   1.082   1_545  S
C112        H124   1.082       .  S
C113        C114   1.374       .  A
C113        H125   1.082       .  S
C114        H126   1.082       .  S
C115        C116   1.373       .  A
C115        H127   1.082       .  S
C116        H128   1.082       .  S
C117       C1159   1.487       .  S
C118       C1147   1.490       .  S
C119       C1222   1.487       .  S
C120       C1135   1.492       .  S
N131        C136   1.355       .  A
N131        C135   1.356       .  A
N131        H163   1.039       .  S
N132        C139   1.352   1_455  A
N132        C140   1.352   1_455  A
N133        C138   1.353       .  A
N133        C137   1.354       .  A
N133        H164   1.039   1_455  S
N134        C141   1.352       .  A
N134        C142   1.353       .  A
C135        C143   1.388       .  A
C135        C151   1.422       .  A
C136        C152   1.419       .  A
C136        C144   1.386       .  A
C137        C145   1.388       .  A
C137        C154   1.417       .  A
C138        C153   1.415       .  A
C138        C146   1.386       .  A
C139        C151   1.416   1_655  A
C139        C147   1.387       .  A
C140        C154   1.414   1_655  A
C140        C148   1.386       .  A
C141        C149   1.387       .  A
C141        C152   1.415       .  A
C142        C150   1.385       .  A
C142        C153   1.414       .  A
C143        C144   1.377       .  A
C143        H155   1.082       .  S
C144        H156   1.082       .  S
C145        C146   1.375       .  A
C145        H157   1.082       .  S
C146        H158   1.082       .  S
C147        C148   1.374       .  A
C147        H159   1.082       .  S
C148        H160   1.082       .  S
C149        C150   1.373       .  A
C149        H161   1.082       .  S
C150        H162   1.082       .  S
C151       C1198   1.498   1_455  S
C152       C1123   1.492       .  S
C153       C1258   1.490       .  S
C154       C1111   1.491   1_455  S
N165        N166   1.321   1_565  A
N165        C169   1.344   1_554  A
N165       Cu173   2.072   1_554  S
N166        C167   1.345       .  A
N166       Cu172   2.073       .  S
C167        C168   1.385   1_545  A
C167        H170   1.082       .  S
C168        C169   1.385   1_554  A
C168       C1078   1.482       .  S
C169        H171   1.081       .  S
Cu172       N175   2.074       .  S
Cu173       N183   2.072       .  S
Cu174       N176   2.085       .  S
Cu174       N182   2.085   1_544  S
N175        N176   1.322       .  A
N175        C179   1.344       .  A
N176        C177   1.347       .  A
C177        C178   1.388       .  A
C177        H180   1.082       .  S
C178        C179   1.386       .  A
C178       C1099   1.488       .  S
C179        H181   1.081       .  S
N182        N183   1.322       .  A
N182        C186   1.347       .  A
N183        C184   1.344       .  A
C184        C185   1.385       .  A
C184        H187   1.081       .  S
C185        C186   1.388       .  A
C185       C1090   1.486       .  S
C186        H188   1.082       .  S
N189        N190   1.321   1_544  A
N189        C193   1.346       .  A
N189       Cu197   2.074       .  S
N190        C191   1.343       .  A
N190       Cu196   2.064       .  S
C191        C192   1.383   1_566  A
C191        H194   1.082       .  S
C192        C193   1.387       .  A
C192       C1075   1.480       .  S
C193        H195   1.082       .  S
Cu196       N199   2.064       .  S
Cu197       N207   2.074       .  S
Cu198       N200   2.073   1_544  S
Cu198       N206   2.074       .  S
N199        N200   1.321       .  A
N199        C203   1.343       .  A
N200        C201   1.344       .  A
C201        C202   1.385       .  A
C201        H204   1.082       .  S
C202        C203   1.384       .  A
C202       C1051   1.479       .  S
C203        H205   1.082       .  S
N206        N207   1.323       .  A
N206        C210   1.347       .  A
N207        C208   1.343       .  A
C208        C209   1.383       .  A
C208        H211   1.082       .  S
C209        C210   1.385       .  A
C209       C1066   1.480       .  S
C210        H212   1.082       .  S
N213        N214   1.320   1_556  A
N213        C217   1.343       .  A
N213       Cu221   2.065       .  S
N214        C215   1.344       .  A
N214       Cu220   2.068   1_455  S
C215        C216   1.386       .  A
C215        H218   1.081   1_455  S
C216        C217   1.384   1_554  A
C216       C1018   1.481       .  S
C217        H219   1.082       .  S
Cu220       N223   2.069       .  S
Cu221       N231   2.065       .  S
Cu222       N224   2.075       .  S
Cu222       N230   2.075   1_554  S
N223        N224   1.322   1_655  A
N223        C227   1.342       .  A
N224        C225   1.345   1_455  A
C225        C226   1.387       .  A
C225        H228   1.081       .  S
C226        C227   1.384       .  A
C226       C1039   1.483       .  S
C227        H229   1.082       .  S
N230        N231   1.321       .  A
N230        C234   1.346       .  A
N231        C232   1.342       .  A
C232        C233   1.385       .  A
C232        H235   1.082       .  S
C233        C234   1.389       .  A
C233       C1027   1.486       .  S
C234        H236   1.081       .  S
N237        N238   1.320   1_554  A
N237        C241   1.343       .  A
N237       Cu245   2.067   1_455  S
N238        C239   1.345       .  A
N238       Cu244   2.070       .  S
C239        C240   1.386   1_556  A
C239        H242   1.081       .  S
C240        C241   1.384       .  A
C240       C1015   1.480       .  S
C241        H243   1.082   1_455  S
Cu244       N247   2.071       .  S
Cu245       N255   2.068       .  S
Cu246       N248   2.088       .  S
Cu246       N254   2.088   1_456  S
N247        N248   1.323       .  A
N247        C251   1.343       .  A
N248        C249   1.348       .  A
C249        C250   1.388       .  A
C249        H252   1.082       .  S
C250        C251   1.383       .  A
C250        C991   1.483       .  S
C251        H253   1.082       .  S
N254        N255   1.322       .  A
N254        C258   1.347       .  A
N255        C256   1.343       .  A
C256        C257   1.385       .  A
C256        H259   1.081       .  S
C257        C258   1.389       .  A
C257       C1003   1.488       .  S
C258        H260   1.082       .  S
N261        N262   1.322       .  A
N261        C265   1.347       .  A
N261       Cu269   2.083       .  S
N262        C263   1.347       .  A
N262       Cu268   2.084       .  S
C263        C264   1.387       .  A
C263        H266   1.082       .  S
C264        C265   1.388       .  A
C264        C967   1.489       .  S
C265        H267   1.081       .  S
Cu268       N271   2.084       .  S
Cu269       N279   2.083       .  S
Cu270       N272   2.084   1_455  S
Cu270       N278   2.084       .  S
N271        N272   1.323   1_455  A
N271        C275   1.346   1_455  A
N272        C273   1.347       .  A
C273        C274   1.388       .  A
C273        H276   1.081       .  S
C274        C275   1.387       .  A
C274        C979   1.489       .  S
C275        H277   1.082   1_655  S
N278        N279   1.322       .  A
N278        C282   1.347       .  A
N279        C280   1.346       .  A
C280        C281   1.388       .  A
C280        H283   1.082       .  S
C281        C282   1.390       .  A
C281       C1126   1.493       .  S
C282        H284   1.081   1_455  S
N285        N286   1.320       .  A
N285        C289   1.346       .  A
N285       Cu293   2.077       .  S
N286        C287   1.347       .  A
N286       Cu292   2.078       .  S
C287        C288   1.388       .  A
C287        H290   1.082       .  S
C288        C289   1.388       .  A
C288        C970   1.488       .  S
C289        H291   1.081       .  S
Cu292       N295   2.077       .  S
Cu293       N303   2.077       .  S
Cu294       N296   2.086       .  S
Cu294       N302   2.086       .  S
N295        N296   1.322       .  A
N295        C299   1.343       .  A
N296        C297   1.349       .  A
C297        C298   1.390       .  A
C297        H300   1.081       .  S
C298        C299   1.385       .  A
C298        C943   1.489       .  S
C299        H301   1.082       .  S
N302        N303   1.323       .  A
N302        C306   1.347       .  A
N303        C304   1.344       .  A
C304        C305   1.386       .  A
C304        H307   1.081       .  S
C305        C306   1.389       .  A
C305        C958   1.489       .  S
C306        H308   1.082       .  S
N309        C314   1.354       .  A
N309        C313   1.353       .  A
N309        H341   1.038       .  S
N310        C317   1.351       .  A
N310        C318   1.351       .  A
N311        C316   1.354       .  A
N311        C315   1.354       .  A
N311        H342   1.040       .  S
N312        C319   1.351       .  A
N312        C320   1.351       .  A
C313        C321   1.387       .  A
C313        C329   1.416       .  A
C314        C330   1.417       .  A
C314        C322   1.388       .  A
C315        C323   1.386       .  A
C315        C332   1.416       .  A
C316        C331   1.418       .  A
C316        C324   1.388       .  A
C317        C329   1.413       .  A
C317        C325   1.386       .  A
C318        C332   1.412       .  A
C318        C326   1.386       .  A
C319        C327   1.386       .  A
C319        C330   1.413       .  A
C320        C328   1.386       .  A
C320        C331   1.415       .  A
C321        C322   1.375       .  A
C321        H333   1.082       .  S
C322        H334   1.082       .  S
C323        C324   1.376       .  A
C323        H335   1.082       .  S
C324        H336   1.082       .  S
C325        C326   1.374       .  A
C325        H337   1.082       .  S
C326        H338   1.082       .  S
C327        C328   1.375       .  A
C327        H339   1.082       .  S
C328        H340   1.082       .  S
C329       C1063   1.488       .  S
C330       C1234   1.487       .  S
C331        C955   1.494       .  S
C332        C931   1.491       .  S
N343        N344   1.322       .  A
N343        C347   1.347       .  A
N343       Cu351   2.083       .  S
N344        C345   1.344       .  A
N344       Cu350   2.072       .  S
C345        C346   1.384       .  A
C345        H348   1.082       .  S
C346        C347   1.386       .  A
C346        C898   1.482       .  S
C347        H349   1.082       .  S
Cu350       N353   2.072       .  S
Cu351       N361   2.083       .  S
Cu352       N354   2.083       .  S
Cu352       N360   2.083       .  S
N353        N354   1.322       .  A
N353        C357   1.344       .  A
N354        C355   1.347       .  A
C355        C356   1.388       .  A
C355        H358   1.081       .  S
C356        C357   1.384       .  A
C356        C907   1.485       .  S
C357        H359   1.082       .  S
N360        N361   1.323       .  A
N360        C364   1.348       .  A
N361        C362   1.345       .  A
C362        C363   1.386       .  A
C362        H365   1.082       .  S
C363        C364   1.386       .  A
C363        C919   1.485       .  S
C364        H366   1.082       .  S
N367        N368   1.321       .  A
N367        C371   1.345       .  A
N367       Cu375   2.076       .  S
N368        C369   1.345       .  A
N368       Cu374   2.068       .  S
C369        C370   1.385       .  A
C369        H372   1.082       .  S
C370        C371   1.385       .  A
C370        C895   1.482       .  S
C371        H373   1.082       .  S
Cu374       N377   2.068   1_565  S
Cu375       N385   2.076       .  S
Cu376       N378   2.088       .  S
Cu376       N384   2.088       .  S
N377        N378   1.323       .  A
N377        C381   1.342       .  A
N378        C379   1.348       .  A
C379        C380   1.387       .  A
C379        H382   1.082       .  S
C380        C381   1.382       .  A
C380        C883   1.480       .  S
C381        H383   1.082       .  S
N384        N385   1.323   1_545  A
N384        C388   1.347       .  A
N385        C386   1.345       .  A
C386        C387   1.384       .  A
C386        H389   1.082       .  S
C387        C388   1.388   1_565  A
C387       C1150   1.487       .  S
C388        H390   1.081       .  S
N391        C396   1.354       .  A
N391        C395   1.354       .  A
N391        H423   1.036       .  S
N392        C399   1.354       .  A
N392        C400   1.353       .  A
N393        C398   1.355       .  A
N393        C397   1.355       .  A
N393        H424   1.034       .  S
N394        C401   1.353       .  A
N394        C402   1.353       .  A
C395        C403   1.387       .  A
C395        C411   1.418       .  A
C396        C412   1.417       .  A
C396        C404   1.387       .  A
C397        C405   1.388       .  A
C397        C414   1.421       .  A
C398        C413   1.421       .  A
C398        C406   1.387       .  A
C399        C411   1.416       .  A
C399        C407   1.385       .  A
C400        C414   1.419       .  A
C400        C408   1.388       .  A
C401        C409   1.386       .  A
C401        C412   1.417       .  A
C402        C410   1.387       .  A
C402        C413   1.418       .  A
C403        C404   1.373       .  A
C403        H415   1.081       .  S
C404        H416   1.082       .  S
C405        C406   1.375       .  A
C405        H417   1.082       .  S
C406        H418   1.082       .  S
C407        C408   1.371       .  A
C407        H419   1.082       .  S
C408        H420   1.082       .  S
C409        C410   1.374       .  A
C409        H421   1.082       .  S
C410        H422   1.082       .  S
C411        C871   1.492       .  S
C412        C922   1.491       .  S
C413       C1270   1.494       .  S
C414       C1006   1.491       .  S
N425        C430   1.351       .  A
N425        C429   1.353       .  A
N425        H457   1.039       .  S
N426        C433   1.351       .  A
N426        C434   1.349       .  A
N427        C432   1.354       .  A
N427        C431   1.354       .  A
N427        H458   1.038       .  S
N428        C435   1.352       .  A
N428        C436   1.352       .  A
C429        C437   1.387       .  A
C429        C445   1.414       .  A
C430        C446   1.413       .  A
C430        C438   1.387       .  A
C431        C439   1.387       .  A
C431        C448   1.417       .  A
C432        C447   1.417       .  A
C432        C440   1.388       .  A
C433        C445   1.410       .  A
C433        C441   1.385       .  A
C434        C448   1.412       .  A
C434        C442   1.387       .  A
C435        C443   1.387       .  A
C435        C446   1.416       .  A
C436        C444   1.386       .  A
C436        C447   1.414       .  A
C437        C438   1.376       .  A
C437        H449   1.082       .  S
C438        H450   1.082       .  S
C439        C440   1.376       .  A
C439        H451   1.082       .  S
C440        H452   1.082       .  S
C441        C442   1.373       .  A
C441        H453   1.082       .  S
C442        H454   1.082       .  S
C443        C444   1.374       .  A
C443        H455   1.082       .  S
C444        H456   1.082       .  S
C445        C982   1.488       .  S
C446       C1042   1.491       .  S
C447       C1102   1.489       .  S
C448        C886   1.485       .  S
N459        N460   1.324       .  A
N459        C463   1.349       .  A
N459       Cu467   2.095   1_554  S
N460        C461   1.345       .  A
N460       Cu466   2.083       .  S
C461        C462   1.383       .  A
C461        H464   1.082       .  S
C462        C463   1.388       .  A
C462        C934   1.486       .  S
C463        H465   1.082       .  S
Cu466       N469   2.083       .  S
Cu467       N477   2.094       .  S
Cu468       N470   2.067       .  S
Cu468       N476   2.068       .  S
N469        N470   1.321   1_554  A
N469        C473   1.347       .  A
N470        C471   1.344       .  A
C471        C472   1.384   1_556  A
C471        H474   1.082       .  S
C472        C473   1.387       .  A
C472        C847   1.483       .  S
C473        H475   1.082       .  S
N476        N477   1.321       .  A
N476        C480   1.342       .  A
N477        C478   1.349       .  A
C478        C479   1.393       .  A
C478        H481   1.081       .  S
C479        C480   1.385       .  A
C479        C859   1.493       .  S
C480        H482   1.082       .  S
N483        N484   1.323       .  A
N483        C487   1.348       .  A
N483       Cu491   2.094   1_554  S
N484        C485   1.344       .  A
N484       Cu490   2.077       .  S
C485        C486   1.386       .  A
C485        H488   1.082       .  S
C486        C487   1.391       .  A
C486        C874   1.491       .  S
C487        H489   1.081       .  S
Cu490       N493   2.076       .  S
Cu491       N501   2.094       .  S
Cu492       N494   2.075       .  S
Cu492       N500   2.076       .  S
N493        N494   1.321   1_554  A
N493        C497   1.345       .  A
N494        C495   1.346       .  A
C495        C496   1.386   1_556  A
C495        H498   1.082       .  S
C496        C497   1.387       .  A
C496        C850   1.486       .  S
C497        H499   1.082       .  S
N500        N501   1.322       .  A
N500        C504   1.345       .  A
N501        C502   1.349       .  A
C502        C503   1.392       .  A
C502        H505   1.081       .  S
C503        C504   1.386       .  A
C503        C838   1.494       .  S
C504        H506   1.082       .  S
N507        N508   1.321       .  A
N507        C511   1.344       .  A
N507       Cu515   2.070       .  S
N508        C509   1.345       .  A
N508       Cu514   2.071       .  S
C509        C510   1.385       .  A
C509        H512   1.082       .  S
C510        C511   1.384       .  A
C510        C811   1.479       .  S
C511        H513   1.082       .  S
Cu514       N517   2.071   1_655  S
Cu515       N525   2.070       .  S
Cu516       N518   2.088       .  S
Cu516       N524   2.088   1_455  S
N517        N518   1.321       .  A
N517        C521   1.343       .  A
N518        C519   1.348       .  A
C519        C520   1.391       .  A
C519        H522   1.081       .  S
C520        C521   1.386       .  A
C520        C823   1.491       .  S
C521        H523   1.082       .  S
N524        N525   1.321       .  A
N524        C528   1.347   1_655  A
N525        C526   1.344       .  A
C526        C527   1.387       .  A
C526        H529   1.080       .  S
C527        C528   1.391   1_655  A
C527       C1114   1.492       .  S
C528        H530   1.082       .  S
N531        N532   1.322       .  A
N531        C535   1.341       .  A
N531       Cu539   2.069       .  S
N532        C533   1.347       .  A
N532       Cu538   2.083       .  S
C533        C534   1.390       .  A
C533        H536   1.081       .  S
C534        C535   1.385       .  A
C534        C787   1.488       .  S
C535        H537   1.082       .  S
Cu538       N541   2.084       .  S
Cu539       N549   2.069       .  S
Cu540       N542   2.065       .  S
Cu540       N548   2.065       .  S
N541        N542   1.322       .  A
N541        C545   1.347       .  A
N542        C543   1.342       .  A
C543        C544   1.381       .  A
C543        H546   1.082       .  S
C544        C545   1.388       .  A
C544        C799   1.482       .  S
C545        H547   1.081       .  S
N548        N549   1.320       .  A
N548        C552   1.344       .  A
N549        C550   1.344       .  A
C550        C551   1.386       .  A
C550        H553   1.082       .  S
C551        C552   1.385       .  A
C551        C814   1.481       .  S
C552        H554   1.082       .  S
N555        C560   1.354       .  A
N555        C559   1.356       .  A
N555        H587   1.035       .  S
N556        C563   1.354       .  A
N556        C564   1.353       .  A
N557        C562   1.357       .  A
N557        C561   1.356       .  A
N557        H588   1.033       .  S
N558        C565   1.352       .  A
N558        C566   1.354       .  A
C559        C567   1.386       .  A
C559        C575   1.417       .  A
C560        C576   1.417       .  A
C560        C568   1.387       .  A
C561        C569   1.387       .  A
C561        C578   1.421       .  A
C562        C577   1.422       .  A
C562        C570   1.388       .  A
C563        C575   1.417       .  A
C563        C571   1.386       .  A
C564        C578   1.417       .  A
C564        C572   1.386       .  A
C565        C573   1.386       .  A
C565        C576   1.415       .  A
C566        C574   1.387       .  A
C566        C577   1.418       .  A
C567        C568   1.375       .  A
C567        H579   1.082       .  S
C568        H580   1.082       .  S
C569        C570   1.372       .  A
C569        H581   1.082       .  S
C570        H582   1.081       .  S
C571        C572   1.373       .  A
C571        H583   1.082       .  S
C572        H584   1.082       .  S
C573        C574   1.371       .  A
C573        H585   1.082       .  S
C574        H586   1.082       .  S
C575        C835   1.497       .  S
C576        C802   1.486       .  S
C577       C1171   1.498       .  S
C578       C1087   1.496       .  S
N589        N590   1.322       .  A
N589        C593   1.345       .  A
N589       Cu597   2.074       .  S
N590        C591   1.345       .  A
N590       Cu596   2.070       .  S
C591        C592   1.383       .  A
C591        H594   1.082       .  S
C592        C593   1.384       .  A
C592        C766   1.478       .  S
C593        H595   1.082       .  S
Cu596       N599   2.070       .  S
Cu597       N607   2.073       .  S
Cu598       N600   2.082   1_545  S
Cu598       N606   2.082       .  S
N599        N600   1.321   1_545  A
N599        C603   1.343   1_545  A
N600        C601   1.346       .  A
C601        C602   1.389       .  A
C601        H604   1.082       .  S
C602        C603   1.386       .  A
C602        C778   1.489       .  S
C603        H605   1.081   1_565  S
N606        N607   1.321       .  A
N606        C610   1.347       .  A
N607        C608   1.343       .  A
C608        C609   1.388       .  A
C608        H611   1.080       .  S
C609        C610   1.390       .  A
C609       C1138   1.492       .  S
C610        H612   1.082   1_545  S
N613        N614   1.324       .  A
N613        C617   1.345       .  A
N613       Cu621   2.073       .  S
N614        C615   1.349       .  A
N614       Cu620   2.101       .  S
C615        C616   1.388       .  A
C615        H618   1.082       .  S
C616        C617   1.382       .  A
C616        C751   1.485       .  S
C617        H619   1.082       .  S
Cu620       N623   2.101       .  S
Cu621       N631   2.072       .  S
Cu622       N624   2.071       .  S
Cu622       N630   2.070       .  S
N623        N624   1.322       .  A
N623        C627   1.350       .  A
N624        C625   1.343       .  A
C625        C626   1.385       .  A
C625        H628   1.081       .  S
C626        C627   1.392       .  A
C626        C739   1.493       .  S
C627        H629   1.082       .  S
N630        N631   1.320       .  A
N630        C634   1.344       .  A
N631        C632   1.345       .  A
C632        C633   1.387       .  A
C632        H635   1.081       .  S
C633        C634   1.386       .  A
C633        C763   1.485       .  S
C634        H636   1.082       .  S
N637        C642   1.354       .  A
N637        C641   1.353       .  A
N637        H669   1.038       .  S
N638        C645   1.351       .  A
N638        C646   1.352       .  A
N639        C644   1.353       .  A
N639        C643   1.354       .  A
N639        H670   1.040       .  S
N640        C647   1.353       .  A
N640        C648   1.352       .  A
C641        C649   1.388       .  A
C641        C657   1.417       .  A
C642        C658   1.417       .  A
C642        C650   1.386       .  A
C643        C651   1.387       .  A
C643        C660   1.417       .  A
C644        C659   1.416       .  A
C644        C652   1.387       .  A
C645        C657   1.414       .  A
C645        C653   1.387       .  A
C646        C660   1.415       .  A
C646        C654   1.386       .  A
C647        C655   1.385       .  A
C647        C658   1.415       .  A
C648        C656   1.386       .  A
C648        C659   1.416       .  A
C649        C650   1.376       .  A
C649        H661   1.082       .  S
C650        H662   1.082       .  S
C651        C652   1.377       .  A
C651        H663   1.082       .  S
C652        H664   1.082       .  S
C653        C654   1.373       .  A
C653        H665   1.082       .  S
C654        H666   1.082       .  S
C655        C656   1.373       .  A
C655        H667   1.082       .  S
C656        H668   1.082       .  S
C657       C1030   1.485       .  S
C658       C1210   1.493       .  S
C659        C754   1.492       .  S
C660        C862   1.494       .  S
N671        C676   1.352       .  A
N671        C675   1.353       .  A
N671        H703   1.041       .  S
N672        C679   1.349       .  A
N672        C680   1.348       .  A
N673        C678   1.353       .  A
N673        C677   1.352       .  A
N673        H704   1.040       .  S
N674        C681   1.351       .  A
N674        C682   1.351       .  A
C675        C683   1.386       .  A
C675        C691   1.413       .  A
C676        C692   1.414       .  A
C676        C684   1.387       .  A
C677        C685   1.387       .  A
C677        C694   1.413       .  A
C678        C693   1.415       .  A
C678        C686   1.387       .  A
C679        C691   1.409       .  A
C679        C687   1.386       .  A
C680        C694   1.409       .  A
C680        C688   1.387       .  A
C681        C689   1.386       .  A
C681        C692   1.414       .  A
C682        C690   1.386       .  A
C682        C693   1.414       .  A
C683        C684   1.377       .  A
C683        H695   1.082       .  S
C684        H696   1.082       .  S
C685        C686   1.377       .  A
C685        H697   1.082       .  S
C686        H698   1.082       .  S
C687        C688   1.374       .  A
C687        H699   1.082       .  S
C688        H700   1.082       .  S
C689        C690   1.374       .  A
C689        H701   1.082       .  S
C690        H702   1.082       .  S
C691        C994   1.486       .  S
C692        C826   1.494       .  S
C693        C775   1.494       .  S
C694       C1054   1.481       .  S
N705        C710   1.354       .  A
N705        C709   1.356       .  A
N705        H737   1.036       .  S
N706        C713   1.353       .  A
N706        C714   1.352       .  A
N707        C712   1.353       .  A
N707        C711   1.352       .  A
N707        H738   1.039       .  S
N708        C715   1.351       .  A
N708        C716   1.352       .  A
C709        C717   1.387       .  A
C709        C725   1.421       .  A
C710        C726   1.420       .  A
C710        C718   1.387       .  A
C711        C719   1.387       .  A
C711        C728   1.414       .  A
C712        C727   1.414       .  A
C712        C720   1.387       .  A
C713        C725   1.417       .  A
C713        C721   1.387       .  A
C714        C728   1.416       .  A
C714        C722   1.386       .  A
C715        C723   1.387       .  A
C715        C726   1.415       .  A
C716        C724   1.385       .  A
C716        C727   1.413       .  A
C717        C718   1.375       .  A
C717        H729   1.082       .  S
C718        H730   1.082       .  S
C719        C720   1.374       .  A
C719        H731   1.082       .  S
C720        H732   1.082       .  S
C721        C722   1.372       .  A
C721        H733   1.082       .  S
C722        H734   1.082       .  S
C723        C724   1.373       .  A
C723        H735   1.082       .  S
C724        H736   1.082       .  S
C725        C742   1.495       .  S
C726        C946   1.487       .  S
C727        C910   1.488       .  S
C728        C790   1.490       .  S
C739        C740   1.406       .  A
C739        C744   1.419       .  A
C740        C741   1.404       .  A
C740        H749   1.083       .  S
C741        C742   1.414       .  A
C741        S745   1.805       .  S
C742        C743   1.401       .  A
C743        C744   1.401       .  A
C743        H750   1.084       .  S
C744        S746   1.802       .  S
S745        H748   1.405       .  S
S746        H747   1.407       .  S
C751        C752   1.404       .  A
C751        C756   1.416       .  A
C752        C753   1.402       .  A
C752        H761   1.084       .  S
C753        C754   1.414       .  A
C753        S757   1.805       .  S
C754        C755   1.403       .  A
C755        C756   1.401       .  A
C755        H762   1.084       .  S
C756        S758   1.803       .  S
S757        H760   1.405       .  S
S758        H759   1.406       .  S
C763        C764   1.405       .  A
C763        C768   1.416       .  A
C764        C765   1.399       .  A
C764        H773   1.083       .  S
C765        C766   1.412       .  A
C765        S769   1.803       .  S
C766        C767   1.402       .  A
C767        C768   1.400       .  A
C767        H774   1.084       .  S
C768        S770   1.802       .  S
S769        H772   1.407       .  S
S770        H771   1.407       .  S
C775        C776   1.403       .  A
C775        C780   1.414       .  A
C776        C777   1.399       .  A
C776        H785   1.084       .  S
C777        C778   1.418       .  A
C777        S781   1.803       .  S
C778        C779   1.406       .  A
C779        C780   1.400       .  A
C779        H786   1.083       .  S
C780        S782   1.804       .  S
S781        H784   1.407   1_565  S
S782        H783   1.406       .  S
C787        C788   1.407       .  A
C787        C792   1.418       .  A
C788        C789   1.397       .  A
C788        H797   1.083       .  S
C789        C790   1.412       .  A
C789        S793   1.806       .  S
C790        C791   1.403       .  A
C791        C792   1.400       .  A
C791        H798   1.084       .  S
C792        S794   1.801       .  S
S793        H796   1.406       .  S
S794        H795   1.407       .  S
C799        C800   1.405       .  A
C799        C804   1.415       .  A
C800        C801   1.398       .  A
C800        H809   1.084       .  S
C801        C802   1.411       .  A
C801        S805   1.805       .  S
C802        C803   1.402       .  A
C803        C804   1.400       .  A
C803        H810   1.084       .  S
C804        S806   1.802       .  S
S805        H808   1.405       .  S
S806        H807   1.407       .  S
C811        C812   1.403       .  A
C811        C816   1.413       .  A
C812        C813   1.398       .  A
C812        H821   1.084       .  S
C813        C814   1.414       .  A
C813        S817   1.803       .  S
C814        C815   1.405       .  A
C815        C816   1.399       .  A
C815        H822   1.084       .  S
C816        S818   1.803       .  S
S817        H820   1.407       .  S
S818        H819   1.407       .  S
C823        C824   1.407       .  A
C823        C828   1.418       .  A
C824        C825   1.398       .  A
C824        H833   1.083       .  S
C825        C826   1.413       .  A
C825        S829   1.805       .  S
C826        C827   1.404       .  A
C827        C828   1.402       .  A
C827        H834   1.084       .  S
C828        S830   1.801       .  S
S829        H832   1.406       .  S
S830        H831   1.407       .  S
C835        C836   1.404       .  A
C835        C840   1.414       .  A
C836        C837   1.403       .  A
C836        H845   1.084       .  S
C837        C838   1.418       .  A
C837        S841   1.801       .  S
C838        C839   1.408       .  A
C839        C840   1.402       .  A
C839        H846   1.083       .  S
C840        S842   1.805       .  S
S841        H844   1.407       .  S
S842        H843   1.406       .  S
C847        C848   1.403       .  A
C847        C852   1.415   1_554  A
C848        C849   1.401       .  A
C848        H857   1.084       .  S
C849        C850   1.415       .  A
C849        S853   1.803       .  S
C850        C851   1.405   1_554  A
C851        C852   1.401       .  A
C851        H858   1.084       .  S
C852        S854   1.803       .  S
S853        H856   1.407       .  S
S854        H855   1.407       .  S
C859        C860   1.408       .  A
C859        C864   1.418       .  A
C860        C861   1.399       .  A
C860        H869   1.083       .  S
C861        C862   1.412       .  A
C861        S865   1.805       .  S
C862        C863   1.404       .  A
C863        C864   1.403       .  A
C863        H870   1.084       .  S
C864        S866   1.801       .  S
S865        H868   1.406       .  S
S866        H867   1.407       .  S
C871        C872   1.402       .  A
C871        C876   1.412       .  A
C872        C873   1.402       .  A
C872        H881   1.084       .  S
C873        C874   1.418       .  A
C873        S877   1.801       .  S
C874        C875   1.407       .  A
C875        C876   1.400       .  A
C875        H882   1.083       .  S
C876        S878   1.805       .  S
S877        H880   1.407       .  S
S878        H879   1.405       .  S
C883        C884   1.405       .  A
C883        C888   1.415       .  A
C884        C885   1.401       .  A
C884        H893   1.084       .  S
C885        C886   1.412       .  A
C885        S889   1.805       .  S
C886        C887   1.401       .  A
C887        C888   1.397       .  A
C887        H894   1.084       .  S
C888        S890   1.803       .  S
S889        H892   1.404       .  S
S890        H891   1.407       .  S
C895        C896   1.403       .  A
C895        C900   1.415       .  A
C896        C897   1.399       .  A
C896        H905   1.084       .  S
C897        C898   1.414       .  A
C897        S901   1.803       .  S
C898        C899   1.404       .  A
C899        C900   1.402       .  A
C899        H906   1.084       .  S
C900        S902   1.803       .  S
S901        H904   1.407       .  S
S902        H903   1.407       .  S
C907        C908   1.406       .  A
C907        C912   1.416       .  A
C908        C909   1.400       .  A
C908        H917   1.084       .  S
C909        C910   1.411       .  A
C909        S913   1.803       .  S
C910        C911   1.402       .  A
C911        C912   1.400       .  A
C911        H918   1.084       .  S
C912        S914   1.802       .  S
S913        H916   1.405       .  S
S914        H915   1.407       .  S
C919        C920   1.405       .  A
C919        C924   1.416       .  A
C920        C921   1.403       .  A
C920        H929   1.084       .  S
C921        C922   1.413       .  A
C921        S925   1.805       .  S
C922        C923   1.401       .  A
C923        C924   1.400       .  A
C923        H930   1.084       .  S
C924        S926   1.802       .  S
S925        H928   1.405       .  S
S926        H927   1.407       .  S
C931        C932   1.402       .  A
C931        C936   1.413       .  A
C932        C933   1.401       .  A
C932        H941   1.084       .  S
C933        C934   1.416       .  A
C933        S937   1.802       .  S
C934        C935   1.406       .  A
C935        C936   1.402       .  A
C935        H942   1.084       .  S
C936        S938   1.805       .  S
S937        H940   1.407       .  S
S938        H939   1.405       .  S
C943        C944   1.407       .  A
C943        C948   1.418       .  A
C944        C945   1.398       .  A
C944        H953   1.083       .  S
C945        C946   1.410       .  A
C945        S949   1.805       .  S
C946        C947   1.402       .  A
C947        C948   1.403       .  A
C947        H954   1.084       .  S
C948        S950   1.801       .  S
S949        H952   1.404       .  S
S950        H951   1.406       .  S
C955        C956   1.403       .  A
C955        C960   1.415       .  A
C956        C957   1.399       .  A
C956        H965   1.084       .  S
C957        C958   1.417       .  A
C957        S961   1.802       .  S
C958        C959   1.407       .  A
C959        C960   1.402       .  A
C959        H966   1.083       .  S
C960        S962   1.805       .  S
S961        H964   1.407       .  S
S962        H963   1.406       .  S
C967        C968   1.405       .  A
C967        C972   1.417       .  A
C968        C969   1.402       .  A
C968        H977   1.084       .  S
C969        C970   1.416       .  A
C969        S973   1.802       .  S
C970        C971   1.405       .  A
C971        C972   1.402       .  A
C971        H978   1.084       .  S
C972        S974   1.802       .  S
S973        H976   1.407       .  S
S974        H975   1.407       .  S
C979        C980   1.407       .  A
C979        C984   1.418       .  A
C980        C981   1.401       .  A
C980        H989   1.083       .  S
C981        C982   1.411       .  A
C981        S985   1.805       .  S
C982        C983   1.402       .  A
C983        C984   1.401       .  A
C983        H990   1.084       .  S
C984        S986   1.801       .  S
S985        H988   1.405       .  S
S986        H987   1.407       .  S
C991        C992   1.405       .  A
C991        C996   1.416       .  A
C992        C993   1.398       .  A
C992       H1001   1.084       .  S
C993        C994   1.411       .  A
C993        S997   1.804       .  S
C994        C995   1.402       .  A
C995        C996   1.401       .  A
C995       H1002   1.084       .  S
C996        S998   1.802       .  S
S997       H1000   1.405       .  S
S998        H999   1.406       .  S
C1003      C1004   1.407       .  A
C1003      C1008   1.418       .  A
C1004      C1005   1.402       .  A
C1004      H1013   1.083       .  S
C1005      C1006   1.413       .  A
C1005      S1009   1.804       .  S
C1006      C1007   1.401       .  A
C1007      C1008   1.399       .  A
C1007      H1014   1.084       .  S
C1008      S1010   1.802       .  S
S1009      H1012   1.405       .  S
S1010      H1011   1.407       .  S
C1015      C1016   1.404       .  A
C1015      C1020   1.414   1_554  A
C1016      C1017   1.399       .  A
C1016      H1025   1.084       .  S
C1017      C1018   1.415       .  A
C1017      S1021   1.803       .  S
C1018      C1019   1.404   1_554  A
C1019      C1020   1.398       .  A
C1019      H1026   1.084       .  S
C1020      S1022   1.803       .  S
S1021      H1024   1.407       .  S
S1022      H1023   1.407   1_455  S
C1027      C1028   1.406       .  A
C1027      C1032   1.418       .  A
C1028      C1029   1.397       .  A
C1028      H1037   1.083       .  S
C1029      C1030   1.410       .  A
C1029      S1033   1.805       .  S
C1030      C1031   1.402       .  A
C1031      C1032   1.400       .  A
C1031      H1038   1.084       .  S
C1032      S1034   1.802       .  S
S1033      H1036   1.405       .  S
S1034      H1035   1.407       .  S
C1039      C1040   1.404       .  A
C1039      C1044   1.417       .  A
C1040      C1041   1.396       .  A
C1040      H1049   1.083       .  S
C1041      C1042   1.415       .  A
C1041      S1045   1.806       .  S
C1042      C1043   1.404       .  A
C1043      C1044   1.401       .  A
C1043      H1050   1.084       .  S
C1044      S1046   1.802       .  S
S1045      H1048   1.406       .  S
S1046      H1047   1.407       .  S
C1051      C1052   1.406       .  A
C1051      C1056   1.416       .  A
C1052      C1053   1.401       .  A
C1052      H1061   1.082       .  S
C1053      C1054   1.406       .  A
C1053      S1057   1.806       .  S
C1054      C1055   1.400       .  A
C1055      C1056   1.397       .  A
C1055      H1062   1.084       .  S
C1056      S1058   1.803       .  S
S1057      H1060   1.407       .  S
S1058      H1059   1.407       .  S
C1063      C1064   1.404       .  A
C1063      C1068   1.412       .  A
C1064      C1065   1.401       .  A
C1064      H1073   1.084       .  S
C1065      C1066   1.415       .  A
C1065      S1069   1.803       .  S
C1066      C1067   1.404       .  A
C1067      C1068   1.397       .  A
C1067      H1074   1.084       .  S
C1068      S1070   1.804       .  S
S1069      H1072   1.406       .  S
S1070      H1071   1.405       .  S
C1075      C1076   1.403   1_544  A
C1075      C1080   1.414       .  A
C1076      C1077   1.398       .  A
C1076      H1085   1.084       .  S
C1077      C1078   1.415   1_556  A
C1077      S1081   1.803       .  S
C1078      C1079   1.404   1_565  A
C1079      C1080   1.401       .  A
C1079      H1086   1.084       .  S
C1080      S1082   1.803       .  S
S1081      H1084   1.407   1_565  S
S1082      H1083   1.407   1_545  S
C1087      C1088   1.404       .  A
C1087      C1092   1.415       .  A
C1088      C1089   1.399       .  A
C1088      H1097   1.084       .  S
C1089      C1090   1.416       .  A
C1089      S1093   1.803       .  S
C1090      C1091   1.405       .  A
C1091      C1092   1.402       .  A
C1091      H1098   1.083       .  S
C1092      S1094   1.804       .  S
S1093      H1096   1.407       .  S
S1094      H1095   1.406       .  S
C1099      C1100   1.406       .  A
C1099      C1104   1.418       .  A
C1100      C1101   1.401       .  A
C1100      H1109   1.083       .  S
C1101      C1102   1.413       .  A
C1101      S1105   1.805       .  S
C1102      C1103   1.401       .  A
C1103      C1104   1.399       .  A
C1103      H1110   1.084       .  S
C1104      S1106   1.802       .  S
S1105      H1108   1.404       .  S
S1106      H1107   1.407       .  S
C1111      C1112   1.401       .  A
C1111      C1116   1.412   1_655  A
C1112      C1113   1.400       .  A
C1112      H1121   1.084       .  S
C1113      C1114   1.420       .  A
C1113      S1117   1.802       .  S
C1114      C1115   1.407   1_655  A
C1115      C1116   1.401       .  A
C1115      H1122   1.083       .  S
C1116      S1118   1.804       .  S
S1117      H1120   1.407       .  S
S1118      H1119   1.406       .  S
C1123      C1124   1.401       .  A
C1123      C1128   1.411       .  A
C1124      C1125   1.406       .  A
C1124      H1133   1.083   1_455  S
C1125      C1126   1.418       .  A
C1125      S1129   1.807   1_455  S
C1126      C1127   1.407       .  A
C1127      C1128   1.402       .  A
C1127      H1134   1.084       .  S
C1128      S1130   1.804       .  S
S1129      H1132   1.407       .  S
S1130      H1131   1.404       .  S
C1135      C1136   1.401       .  A
C1135      C1140   1.413       .  A
C1136      C1137   1.399       .  A
C1136      H1145   1.084       .  S
C1137      C1138   1.419       .  A
C1137      S1141   1.802       .  S
C1138      C1139   1.408       .  A
C1139      C1140   1.402       .  A
C1139      H1146   1.083   1_545  S
C1140      S1142   1.804   1_545  S
S1141      H1144   1.407       .  S
S1142      H1143   1.406       .  S
C1147      C1148   1.402       .  A
C1147      C1152   1.413   1_545  A
C1148      C1149   1.402       .  A
C1148      H1157   1.084       .  S
C1149      C1150   1.416   1_545  A
C1149      S1153   1.802       .  S
C1150      C1151   1.406       .  A
C1151      C1152   1.401       .  A
C1151      H1158   1.084       .  S
C1152      S1154   1.805       .  S
S1153      H1156   1.407       .  S
S1154      H1155   1.405       .  S
C1159      C1160   1.400       .  A
C1159      C1164   1.411   1_545  A
C1160      C1161   1.399       .  A
C1160      H1169   1.084       .  S
C1161      C1162   1.419       .  A
C1161      S1165   1.802       .  S
C1162      C1163   1.407       .  A
C1163      C1164   1.401   1_545  A
C1163      H1170   1.083   1_545  S
C1164      S1166   1.804       .  S
S1165      H1168   1.407       .  S
S1166      H1167   1.405       .  S
C1171      C1172   1.402       .  A
C1171      C1176   1.414       .  A
C1172      C1173   1.399       .  A
C1172      H1181   1.084       .  S
C1173      C1174   1.420       .  A
C1173      S1177   1.802       .  S
C1174      C1175   1.408       .  A
C1175      C1176   1.403       .  A
C1175      H1182   1.083       .  S
C1176      S1178   1.804       .  S
S1177      H1180   1.408   1_565  S
S1178      H1179   1.405       .  S
C1183      C1184   1.405       .  A
C1183      C1188   1.415       .  A
C1184      C1185   1.401       .  A
C1184      H1193   1.083       .  S
C1185      C1186   1.416       .  A
C1185      S1189   1.802       .  S
C1186      C1187   1.405       .  A
C1187      C1188   1.400       .  A
C1187      H1194   1.083       .  S
C1188      S1190   1.803       .  S
S1189      H1192   1.407       .  S
S1190      H1191   1.407       .  S
C1195      C1196   1.407   1_655  A
C1195      C1200   1.420       .  A
C1196      C1197   1.404       .  A
C1196      H1205   1.083       .  S
C1197      C1198   1.416   1_455  A
C1197      S1201   1.805       .  S
C1198      C1199   1.402       .  A
C1199      C1200   1.401       .  A
C1199      H1206   1.084       .  S
C1200      S1202   1.802       .  S
S1201      H1204   1.406       .  S
S1202      H1203   1.407       .  S
C1207      C1208   1.407       .  A
C1207      C1212   1.417       .  A
C1208      C1209   1.405       .  A
C1208      H1217   1.083       .  S
C1209      C1210   1.414       .  A
C1209      S1213   1.804       .  S
C1210      C1211   1.401       .  A
C1211      C1212   1.400       .  A
C1211      H1218   1.084       .  S
C1212      S1214   1.802       .  S
S1213      H1216   1.405       .  S
S1214      H1215   1.407       .  S
C1219      C1220   1.405   1_565  A
C1219      C1224   1.416       .  A
C1220      C1221   1.400       .  A
C1220      H1229   1.084       .  S
C1221      C1222   1.412       .  A
C1221      S1225   1.804       .  S
C1222      C1223   1.401   1_545  A
C1223      C1224   1.398       .  A
C1223      H1230   1.084       .  S
C1224      S1226   1.803       .  S
S1225      H1228   1.406       .  S
S1226      H1227   1.407       .  S
C1231      C1232   1.406       .  A
C1231      C1236   1.420       .  A
C1232      C1233   1.401       .  A
C1232      H1241   1.083       .  S
C1233      C1234   1.412       .  A
C1233      S1237   1.805       .  S
C1234      C1235   1.399       .  A
C1235      C1236   1.399       .  A
C1235      H1242   1.084       .  S
C1236      S1238   1.802       .  S
S1237      H1240   1.405       .  S
S1238      H1239   1.407       .  S
C1243      C1244   1.404       .  A
C1243      C1248   1.415       .  A
C1244      C1245   1.402       .  A
C1244      H1253   1.084       .  S
C1245      C1246   1.415       .  A
C1245      S1249   1.803       .  S
C1246      C1247   1.403       .  A
C1247      C1248   1.399       .  A
C1247      H1254   1.084       .  S
C1248      S1250   1.803       .  S
S1249      H1252   1.407       .  S
S1250      H1251   1.407       .  S
C1255      C1256   1.408       .  A
C1255      C1260   1.416       .  A
C1256      C1257   1.402       .  A
C1256      H1265   1.083       .  S
C1257      C1258   1.412       .  A
C1257      S1261   1.804       .  S
C1258      C1259   1.402       .  A
C1259      C1260   1.401       .  A
C1259      H1266   1.084   1_455  S
C1260      S1262   1.801   1_455  S
S1261      H1264   1.405       .  S
S1262      H1263   1.407       .  S
C1267      C1268   1.407       .  A
C1267      C1272   1.417       .  A
C1268      C1269   1.405       .  A
C1268      H1277   1.084       .  S
C1269      C1270   1.414       .  A
C1269      S1273   1.804       .  S
C1270      C1271   1.401       .  A
C1271      C1272   1.400       .  A
C1271      H1278   1.084       .  S
C1272      S1274   1.802       .  S
S1273      H1276   1.405       .  S
S1274      H1275   1.407       .  S
