geometry optimzed in LAMMPS
_audit_creation_date              2020-11-30 
_audit_creation_method            'lammps2cif' 
_symmetry_space_group_name_H-M    'P1' 
_symmetry_Int_Tables_number       1 
_symmetry_cell_setting            triclinic 
loop_ 
_symmetry_equiv_pos_as_xyz 
  x,y,z 
_cell_length_a                    31.52598225 
_cell_length_b                    32.0081139052071 
_cell_length_c                    30.73616174604141 
_cell_angle_alpha                 89.63590385654275 
_cell_angle_beta                  90.64439263250195 
_cell_angle_gamma                 89.68257286788987 
loop_ 
_atom_site_label 
_atom_site_type_symbol 
_atom_site_fract_x 
_atom_site_fract_y 
_atom_site_fract_z 
_atom_site_charge 
O1          O  0.46072930  0.40334741  0.49515317    -0.80500
O2          O  0.54414060  0.56401429  0.47712140    -0.80500
O3          O  0.45534219  0.53815155  0.44621367    -0.80500
O4          O  0.55229285  0.46729941  0.45553276    -0.80400
O5          O  0.46232480  0.58549911  0.49527922    -0.80500
O6          O  0.54562893  0.41226614  0.49825998    -0.80500
O7          O  0.60461070  0.52871369  0.48524135    -0.80500
O8          O  0.45369281  0.45287943  0.44558228    -0.80500
C9          C  0.45063780  0.41509098  0.45676925     1.09200
C10         C  0.58378209  0.55849979  0.46771319     1.09100
C11         C  0.44878912  0.57526146  0.45789463     1.09300
C12         C  0.55617324  0.42826289  0.46174845     1.09100
O13         O  0.53908299  0.44824143  0.58614063    -0.80500
O14         O  0.46331447  0.54518983  0.57799814    -0.80500
O15         O  0.40640671  0.45297020  0.52549615    -0.80500
O16         O  0.56468376  0.54205523  0.56181569    -0.80400
O17         O  0.52630614  0.59995908  0.55459300    -0.80500
O18         O  0.45224552  0.44246435  0.57922998    -0.80500
O19         O  0.58984243  0.46277220  0.54167314    -0.80400
O20         O  0.41150877  0.53643283  0.53004614    -0.80500
Co21       Co  0.49930221  0.43062907  0.53949154     1.51500
Co22       Co  0.50451976  0.55036854  0.53009626     1.51700
Co23       Co  0.43568023  0.49498415  0.48740075     1.51600
Co24       Co  0.55433738  0.50455466  0.50653546     1.51500
O25         O  0.49352781  0.49028637  0.51642670    -1.42400
C26         C  0.57821954  0.44801761  0.57815052     1.09200
C27         C  0.42416305  0.54796065  0.56768288     1.09300
C28         C  0.41473275  0.44135603  0.56430028     1.09200
C29         C  0.55792973  0.58094928  0.57139149     1.09200
O30         O  0.96763157  0.41550182  0.99921470    -0.80500
O31         O  0.04345763  0.59077106  0.99081695    -0.80500
O32         O  0.90497551  0.53052631  0.97411029    -0.80500
O33         O  0.06263563  0.45572077  0.95291159    -0.80400
O34         O  0.96461576  0.56608365  0.96819827    -0.80500
O35         O  0.05305948  0.40958552  0.00516183    -0.80500
O36         O  0.05753881  0.54035910  0.94639150    -0.80500
O37         O  0.95984022  0.46735710  0.95202476    -0.80500
C38         C  0.95603198  0.42880026  0.96153496     1.09200
C39         C  0.05715186  0.57892897  0.95430131     1.09100
C40         C  0.92562499  0.55963511  0.95611543     1.09300
C41         C  0.06427131  0.41855464  0.96666586     1.09100
O42         O  0.05330741  0.45552242  0.08588184    -0.80500
O43         O  0.97674163  0.60687864  0.04423436    -0.80500
O44         O  0.91908557  0.46764355  0.03408309    -0.80500
O45         O  0.09549638  0.54694868  0.03411611    -0.80400
O46         O  0.04027255  0.55594314  0.07674062    -0.80500
O47         O  0.96693945  0.45825954  0.08424956    -0.80500
O48         O  0.10354659  0.46220195  0.03756941    -0.80400
O49         O  0.94094628  0.54794266  0.05213024    -0.80500
Co50       Co  0.01037122  0.43862375  0.04309354     1.51500
Co51       Co  0.00165207  0.55658734  0.02506792     1.51700
Co52       Co  0.95497036  0.50823424  0.99999028     1.51600
Co53       Co  0.07586072  0.50115522  0.99312141     1.51500
O54         O  0.01570648  0.49630200  0.01572692    -1.42400
C55         C  0.09180431  0.45196807  0.07569854     1.09200
C56         C  0.94585518  0.58729226  0.06053742     1.09300
C57         C  0.92901320  0.45440747  0.07183866     1.09200
C58         C  0.07966636  0.56036030  0.06955141     1.09200
C59         C  0.76937472  0.24939980  0.75920829    -0.02800
O60         O  0.48167751  0.09089500  0.93981081    -0.80500
O61         O  0.45619396  0.92390895  0.01672763    -0.80500
O62         O  0.43481658  0.95833687  0.91839364    -0.80500
O63         O  0.47979383  0.04320930  0.07293509    -0.80400
O64         O  0.47937496  0.90870587  0.93748214    -0.80500
O65         O  0.45490040  0.06994357  0.01408867    -0.80500
O66         O  0.47250697  0.96112491  0.07271740    -0.80500
O67         O  0.43537611  0.04366299  0.92040118    -0.80500
C68         C  0.44598124  0.08148204  0.92335054     1.09200
C69         C  0.45009213  0.93321630  0.05569121     1.09100
C70         C  0.44493092  0.92009567  0.91865599     1.09300
C71         C  0.45373658  0.06705138  0.05432521     1.09100
O72         O  0.53549451  0.10165513  0.01152432    -0.80500
O73         O  0.56009479  0.95359360  0.95225979    -0.80500
O74         O  0.52346480  0.04316805  0.89347743    -0.80500
O75         O  0.55936747  0.95039086  0.04089681    -0.80400
O76         O  0.53580262  0.89322131  0.00763357    -0.80500
O77         O  0.56151827  0.04505831  0.95244788    -0.80500
O78         O  0.56340765  0.04223513  0.03703017    -0.80400
O79         O  0.52245373  0.95854940  0.89278926    -0.80500
Co80       Co  0.50870872  0.05486192  0.98617505     1.51500
Co81       Co  0.50813138  0.94145109  0.98592096     1.51700
Co82       Co  0.47924711  0.00078590  0.91133904     1.51600
Co83       Co  0.51561462  0.99892651  0.04625095     1.51500
O84         O  0.48811671  0.99866215  0.97862676    -1.42400
C85         C  0.56227318  0.08282127  0.03597533     1.09200
C86         C  0.55705007  0.94900901  0.91171263     1.09300
C87         C  0.55814591  0.05248586  0.91220719     1.09200
C88         C  0.56179265  0.91055914  0.03369326     1.09200
C89         C  0.23375229  0.74650148  0.73864763    -0.02800
O90         O  0.95380230  0.09015324  0.51242634    -0.80500
O91         O  0.03188590  0.91630688  0.49994771    -0.80500
O92         O  0.89212187  0.97295192  0.52048057    -0.80500
O93         O  0.05121808  0.04621995  0.55429136    -0.80400
O94         O  0.95346427  0.93958253  0.52650366    -0.80500
O95         O  0.03895771  0.09759981  0.50787078    -0.80500
O96         O  0.04635926  0.96132906  0.55002636    -0.80500
O97         O  0.94640287  0.03290949  0.55206113    -0.80500
C98         C  0.94340989  0.07233764  0.54808653     1.09200
C99         C  0.04824485  0.92425386  0.53666018     1.09100
C100        C  0.91368803  0.94259922  0.53599426     1.09300
C101        C  0.05227910  0.08456171  0.54476744     1.09100
O102        O  0.03879777  0.06204169  0.42201241    -0.80500
O103        O  0.96328625  0.90592739  0.44711712    -0.80500
O104        O  0.90469656  0.04359904  0.46949433    -0.80500
O105        O  0.08195774  0.96516105  0.46186166    -0.80400
O106        O  0.02542666  0.95901263  0.41923766    -0.80500
O107        O  0.95299376  0.05740747  0.42260619    -0.80500
O108        O  0.08969526  0.04932224  0.46945028    -0.80400
O109        O  0.92872382  0.96595541  0.44152125    -0.80500
Co110      Co  0.99616828  0.07297795  0.46633785     1.51500
Co111      Co  0.98859075  0.95392284  0.47089367     1.51700
Co112      Co  0.94169428  0.99901887  0.49871552     1.51600
Co113      Co  0.06327361  0.00565311  0.50855165     1.51500
O114        O  0.00265676  0.01292106  0.48643092    -1.42400
C115        C  0.07734749  0.06452555  0.43306572     1.09200
C116        C  0.93266393  0.92702580  0.43117267     1.09300
C117        C  0.91484144  0.06028675  0.43353364     1.09200
C118        C  0.06516816  0.95461607  0.42553226     1.09200
C119        C  0.74039530  0.74383138  0.25167033    -0.02800
C120        C  0.27298975  0.24614355  0.25088508    -0.02800
C121        C  0.73396311  0.25998968  0.24560562    -0.02800
C122        C  0.26247922  0.75947996  0.25634986    -0.02800
C123        C  0.23716899  0.25310098  0.75082490    -0.02800
C124        C  0.76238418  0.75735986  0.75422504    -0.02800
C125        C  0.10321241  0.13229038  0.64499816    -0.11700
C126        C  0.12750777  0.16398563  0.62603195     0.14800
C127        C  0.12460799  0.17117266  0.58078920     0.01700
C128        C  0.09844846  0.14577119  0.55542431    -0.16100
C129        C  0.07453301  0.11354986  0.57421093    -0.10900
C130        C  0.07624312  0.10754337  0.61980730     0.08500
C131        C  0.15516435  0.18902045  0.65469086     0.09500
S132        S  0.15374112  0.21172376  0.55337623    -0.25200
H133        H  0.09762733  0.15062856  0.52048747     0.19800
S134        S  0.04419989  0.06979805  0.64800862    -0.30900
H135        H  0.10498718  0.12714125  0.67987183     0.10100
C136        C  0.13780933  0.21633857  0.68508326     0.03300
C137        C  0.16463861  0.23709805  0.71404329    -0.13200
C138        C  0.20921114  0.22984824  0.71583791    -0.08900
C139        C  0.22640670  0.20629391  0.68054759     0.06700
C140        C  0.19914777  0.18514845  0.65176756    -0.13900
S141        S  0.08125295  0.22611028  0.68597472    -0.30900
H142        H  0.14981076  0.25985540  0.73459051     0.11000
S143        S  0.28259172  0.20017699  0.67195970    -0.28000
H144        H  0.21203583  0.16487399  0.62707540     0.08200
H145        H  0.00873839  0.07457139  0.62025410     0.26600
H146        H  0.08070318  0.24938260  0.72463737     0.21400
H147        H  0.28032974  0.18179897  0.63055734     0.26800
H148        H  0.15469671  0.23975534  0.58838447     0.15600
C149        C  0.19726193  0.15459334  0.28641624    -0.11700
C150        C  0.18012440  0.17134422  0.32415265     0.14800
C151        C  0.18839476  0.21322057  0.33451660     0.01700
C152        C  0.21634915  0.23620609  0.30885243    -0.16100
C153        C  0.23851564  0.21831038  0.27361991    -0.10900
C154        C  0.22435265  0.17775329  0.25968581     0.08500
C155        C  0.15382477  0.14397342  0.35182193     0.09500
S156        S  0.16491780  0.23892063  0.38050118    -0.25200
H157        H  0.22253000  0.26819313  0.31796207     0.19800
S158        S  0.23424730  0.15561738  0.20647979    -0.30900
H159        H  0.18835260  0.12313636  0.27752014     0.10100
C160        C  0.11358261  0.13048193  0.33788376     0.03300
C161        C  0.09064179  0.10304051  0.36417414    -0.13200
C162        C  0.10630594  0.08947277  0.40507839    -0.08900
C163        C  0.14684385  0.10361453  0.41915834     0.06700
C164        C  0.17015409  0.13025268  0.39202089    -0.13900
S165        S  0.09054766  0.14971742  0.28744145    -0.30900
H166        H  0.05971604  0.09290879  0.35301541     0.11000
S167        S  0.16917475  0.08982857  0.47185797    -0.28000
H168        H  0.20122395  0.14093812  0.40217352     0.08200
H169        H  0.21649845  0.11592560  0.21319746     0.26600
H170        H  0.05058507  0.13094194  0.29201508     0.21400
H171        H  0.20739774  0.11194172  0.46812525     0.26800
H172        H  0.12727488  0.21558279  0.38067225     0.15600
C173        C  0.89039941  0.84310034  0.60083284    -0.11700
C174        C  0.85416456  0.85519545  0.62346828     0.14800
C175        C  0.83731688  0.89574516  0.61713081     0.01700
C176        C  0.85736989  0.92347883  0.58868473    -0.16100
C177        C  0.89406603  0.91177259  0.56606320    -0.10900
C178        C  0.91054679  0.87067416  0.57212824     0.08500
C179        C  0.83616254  0.82589000  0.65566612     0.09500
S180        S  0.79077822  0.91425066  0.64498628    -0.25200
H181        H  0.84426290  0.95462378  0.58445970     0.19800
S182        S  0.95619106  0.85182115  0.54278221    -0.30900
H183        H  0.90295597  0.81189436  0.60602804     0.10100
C184        C  0.81109028  0.79188548  0.64323722     0.03300
C185        C  0.79101561  0.76805672  0.67535880    -0.13200
C186        C  0.79273827  0.77898548  0.72017336    -0.08900
C187        C  0.82454469  0.80879482  0.73197619     0.06700
C188        C  0.84435411  0.83262369  0.69968619    -0.13900
S189        S  0.80291955  0.78009758  0.58633942    -0.30900
H190        H  0.77307927  0.74145659  0.66454777     0.11000
S191        S  0.83921266  0.81994948  0.78748967    -0.28000
H192        H  0.86562775  0.85765036  0.70871711     0.08200
H193        H  0.95941062  0.81231861  0.56287941     0.26600
H194        H  0.77663940  0.74519250  0.59225854     0.21400
H195        H  0.87701532  0.84146146  0.77880776     0.26800
H196        H  0.77115552  0.87520785  0.64988784     0.15600
C197        C  0.20144116  0.82535316  0.34674496    -0.11700
C198        C  0.17331865  0.84856993  0.32065041     0.14800
C199        C  0.17564880  0.84427696  0.27525179     0.01700
C200        C  0.20438531  0.81566865  0.25738587    -0.16100
C201        C  0.23249978  0.79027115  0.28296555    -0.10900
C202        C  0.23173940  0.79763285  0.32938543     0.08500
C203        C  0.14375262  0.87837038  0.34249420     0.09500
S204        S  0.14307988  0.87457390  0.23800262    -0.25200
H205        H  0.20449402  0.81278113  0.22229010     0.19800
S206        S  0.27091594  0.77846021  0.36853901    -0.30900
H207        H  0.20019820  0.83026531  0.38151535     0.10100
C208        C  0.09982581  0.87080694  0.34576496     0.03300
C209        C  0.07428603  0.89778015  0.37063626    -0.13200
C210        C  0.09178527  0.93192871  0.39317550    -0.08900
C211        C  0.13561364  0.94016081  0.38848082     0.06700
C212        C  0.16090019  0.91338342  0.36338957    -0.13900
S213        S  0.07683404  0.82512466  0.32089162    -0.30900
H214        H  0.04097812  0.89081472  0.37457498     0.11000
S215        S  0.15997340  0.98470369  0.41428082    -0.28000
H216        H  0.19459789  0.91908940  0.36077971     0.08200
H217        H  0.25473334  0.79616337  0.40670336     0.26600
H218        H  0.03449878  0.83385986  0.33181349     0.21400
H219        H  0.19972416  0.98126121  0.39425842     0.26800
H220        H  0.13865790  0.90973361  0.26475086     0.15600
C221        C  0.81664034  0.83630194  0.27881682    -0.11700
C222        C  0.81333458  0.83797449  0.32390452     0.14800
C223        C  0.78191033  0.81482730  0.34491821     0.01700
C224        C  0.75669148  0.78776057  0.32071264    -0.16100
C225        C  0.76343594  0.78067992  0.27576044    -0.10900
C226        C  0.79179922  0.80883334  0.25418883     0.08500
C227        C  0.84486908  0.86218458  0.34838006     0.09500
S228        S  0.77294997  0.81752395  0.40276660    -0.25200
H229        H  0.73244620  0.77133219  0.33831140     0.19800
S230        S  0.80061109  0.80850165  0.19607406    -0.30900
H231        H  0.84020796  0.85558618  0.26322452     0.10100
C232        C  0.88459905  0.84459221  0.35897078     0.03300
C233        C  0.91309908  0.86727460  0.38450925    -0.13200
C234        C  0.90244548  0.90704375  0.40049303    -0.08900
C235        C  0.86235853  0.92481725  0.38910170     0.06700
C236        C  0.83424718  0.90210819  0.36286057    -0.13900
S237        S  0.89812352  0.79235523  0.34160734    -0.30900
H238        H  0.94355032  0.85341681  0.39278152     0.11000
S239        S  0.84466927  0.97477679  0.40949390    -0.28000
H240        H  0.80321714  0.91474412  0.35467567     0.08200
H241        H  0.83143854  0.84001132  0.19411794     0.26600
H242        H  0.93662331  0.78888191  0.36496177     0.21400
H243        H  0.80844712  0.97909483  0.38266713     0.26800
H244        H  0.81537152  0.82377287  0.41544997     0.15600
C245        C  0.76907419  0.15891586  0.31272177    -0.11700
C246        C  0.80250847  0.17456797  0.33769468     0.14800
C247        C  0.81077077  0.21771526  0.33590901     0.01700
C248        C  0.78732340  0.24347050  0.30725432    -0.16100
C249        C  0.75645579  0.22774746  0.27784162    -0.10900
C250        C  0.74468111  0.18457500  0.28455807     0.08500
C251        C  0.82987061  0.14439893  0.36256822     0.09500
S252        S  0.85183697  0.24191333  0.36820150    -0.25200
H253        H  0.79455279  0.27639966  0.30694977     0.19800
S254        S  0.69760197  0.16016455  0.26183120    -0.30900
H255        H  0.76214725  0.12591377  0.31545595     0.10100
C256        C  0.81930552  0.12945633  0.40430029     0.03300
C257        C  0.84650156  0.10077571  0.42599582    -0.13200
C258        C  0.88431141  0.08643626  0.40686377    -0.08900
C259        C  0.89378178  0.10060430  0.36403872     0.06700
C260        C  0.86660112  0.12935479  0.34281598    -0.13900
S261        S  0.77181307  0.14797600  0.43037005    -0.30900
H262        H  0.83877258  0.09034272  0.45849838     0.11000
S263        S  0.93978405  0.08211907  0.33496706    -0.28000
H264        H  0.87384330  0.14033029  0.31036081     0.08200
H265        H  0.69738468  0.12387318  0.28786492     0.26600
H266        H  0.77919501  0.12810766  0.47072679     0.21400
H267        H  0.93408052  0.10649587  0.29709240     0.26800
H268        H  0.85330936  0.21190832  0.40171298     0.15600
C269        C  0.12396132  0.83503349  0.56819644    -0.11700
C270        C  0.12749506  0.84068977  0.61334429     0.14800
C271        C  0.10230874  0.87158552  0.63324451     0.01700
C272        C  0.07541284  0.89698950  0.60762300    -0.16100
C273        C  0.07260231  0.89228984  0.56225657    -0.10900
C274        C  0.09659361  0.86010147  0.54245329     0.08500
C275        C  0.15897402  0.81560252  0.63925254     0.09500
S276        S  0.10394799  0.87861729  0.69153035    -0.25200
H277        H  0.05670638  0.92107614  0.62303701     0.19800
S278        S  0.09532851  0.85231868  0.48422583    -0.30900
H279        H  0.14371048  0.81164531  0.55300343     0.10100
C280        C  0.15589402  0.77204150  0.64396880     0.03300
C281        C  0.18245160  0.75127522  0.67418420    -0.13200
C282        C  0.21161565  0.77284246  0.70141453    -0.08900
C283        C  0.22041116  0.81516945  0.68906648     0.06700
C284        C  0.19259287  0.83614346  0.66003684    -0.13900
S285        S  0.11536445  0.74320918  0.61519506    -0.30900
H286        H  0.17763419  0.71827643  0.67949572     0.11000
S287        S  0.26880569  0.84217179  0.70346050    -0.28000
H288        H  0.19705072  0.86900641  0.65302067     0.08200
H289        H  0.11976431  0.81542643  0.48379003     0.26600
H290        H  0.12808914  0.70313158  0.62934658     0.21400
H291        H  0.26147819  0.87925099  0.67970213     0.26800
H292        H  0.08234974  0.91718299  0.69199092     0.15600
C293        C  0.62584631  0.12500310  0.13118529    -0.11700
C294        C  0.64035945  0.16286999  0.11392612     0.14800
C295        C  0.63252093  0.17249830  0.06963011     0.01700
C296        C  0.60852316  0.14487432  0.04431467    -0.16100
C297        C  0.59262977  0.10759364  0.06198470    -0.10900
C298        C  0.60221494  0.09716709  0.10576863     0.08500
C299        C  0.66353745  0.19103731  0.14363241     0.09500
S300        S  0.65160777  0.21919609  0.04313017    -0.25200
H301        H  0.60156494  0.15288709  0.01065494     0.19800
S302        S  0.58165440  0.05039685  0.13096029    -0.30900
H303        H  0.63220173  0.11785546  0.16514072     0.10100
C304        C  0.64207725  0.21920650  0.17045518     0.03300
C305        C  0.66489313  0.24208944  0.20157650    -0.13200
C306        C  0.70916343  0.23626440  0.20864883    -0.08900
C307        C  0.73042176  0.20822656  0.17958271     0.06700
C308        C  0.70731077  0.18649630  0.14780444    -0.13900
S309        S  0.58526346  0.22571051  0.16525266    -0.30900
H310        H  0.64744377  0.26493762  0.21973877     0.11000
S311        S  0.78610571  0.19498756  0.18472109    -0.28000
H312        H  0.72310574  0.16403200  0.12725291     0.08200
H313        H  0.60706650  0.05184153  0.16883952     0.26600
H314        H  0.57978284  0.24980958  0.20291753     0.21400
H315        H  0.79081304  0.17622109  0.14378320     0.26800
H316        H  0.66491034  0.24126240  0.08006763     0.15600
C317        C  0.35828736  0.12570062  0.09733122    -0.11700
C318        C  0.37800823  0.15144424  0.12822978     0.14800
C319        C  0.42246231  0.14963684  0.13379943     0.01700
C320        C  0.44588452  0.12070091  0.11013535    -0.16100
C321        C  0.42618028  0.09449285  0.07972181    -0.10900
C322        C  0.38192136  0.09735855  0.07284170     0.08500
C323        C  0.35120812  0.17594486  0.15787917     0.09500
S324        S  0.45109665  0.18368930  0.17020093    -0.25200
H325        H  0.48004564  0.11937003  0.11464731     0.19800
S326        S  0.35349824  0.06451511  0.03518680    -0.30900
H327        H  0.32408360  0.12671506  0.09337217     0.10100
C328        C  0.32624031  0.20963176  0.14324973     0.03300
C329        C  0.30136374  0.23151759  0.17296296    -0.13200
C330        C  0.29968169  0.22025296  0.21775046    -0.08900
C331        C  0.32556243  0.18556513  0.23169505     0.06700
C332        C  0.35057420  0.16428999  0.20165377    -0.13900
S333        S  0.32780313  0.22644545  0.08705624    -0.30900
H334        H  0.28544583  0.25902108  0.16076105     0.11000
S335        S  0.32547845  0.16504293  0.28671551    -0.28000
H336        H  0.36942057  0.13759039  0.21206253     0.08200
H337        H  0.38188572  0.03052302  0.03720337     0.26600
H338        H  0.29304657  0.25414356  0.08868480     0.21400
H339        H  0.36177044  0.13951256  0.28372028     0.26800
H340        H  0.42219354  0.21725556  0.16730366     0.15600
C341        C  0.33262238  0.85059730  0.20930599    -0.11700
C342        C  0.33036481  0.84384456  0.16449451     0.14800
C343        C  0.30355487  0.81209942  0.14897724     0.01700
C344        C  0.28170428  0.78654782  0.17838305    -0.16100
C345        C  0.28665217  0.78992720  0.22427344    -0.10900
C346        C  0.31088585  0.82513434  0.23910111     0.08500
C347        C  0.35941588  0.86759587  0.13535667     0.09500
S348        S  0.29575958  0.80245483  0.09166710    -0.25200
H349        H  0.26038773  0.76419486  0.16410318     0.19800
S350        S  0.31966201  0.83643355  0.29587461    -0.30900
H351        H  0.35337733  0.87493737  0.22123401     0.10100
C352        C  0.35626911  0.91135193  0.12933362     0.03300
C353        C  0.38579598  0.93217271  0.10279258    -0.13200
C354        C  0.41867938  0.91020646  0.08234912    -0.08900
C355        C  0.42235049  0.86667033  0.08961034     0.06700
C356        C  0.39251213  0.84586769  0.11520205    -0.13900
S357        S  0.31416961  0.94056767  0.15463049    -0.30900
H358        H  0.38324283  0.96561395  0.09778606     0.11000
S359        S  0.46651052  0.83657549  0.07008914    -0.28000
H360        H  0.39600173  0.81254623  0.12077051     0.08200
H361        H  0.33021421  0.87879004  0.29042482     0.26600
H362        H  0.32893526  0.98051094  0.14317544     0.21400
H363        H  0.49671319  0.86667175  0.08203631     0.26800
H364        H  0.30397641  0.84345880  0.07756538     0.15600
C365        C  0.66261915  0.90070991  0.87759447    -0.11700
C366        C  0.64927441  0.87679022  0.84194845     0.14800
C367        C  0.60672440  0.87930344  0.82770278     0.01700
C368        C  0.57805449  0.90416289  0.85034681    -0.16100
C369        C  0.59076407  0.92744554  0.88687491    -0.10900
C370        C  0.63404716  0.92645284  0.89978366     0.08500
C371        C  0.67955642  0.84775242  0.82139194     0.09500
S372        S  0.58679050  0.85048727  0.78160102    -0.25200
H373        H  0.54513626  0.90437595  0.83980687     0.19800
S374        S  0.65515041  0.95774453  0.94330099    -0.30900
H375        H  0.69549269  0.89919468  0.88822122     0.10100
C376        C  0.70984277  0.86184025  0.79184503     0.03300
C377        C  0.73629057  0.83288767  0.77136395    -0.13200
C378        C  0.73399462  0.78919829  0.77962359    -0.08900
C379        C  0.70188838  0.77562230  0.80929453     0.06700
C380        C  0.67577101  0.80505722  0.82968902    -0.13900
S381        S  0.71281728  0.91670729  0.77791531    -0.30900
H382        H  0.75687655  0.84514682  0.74691242     0.11000
S383        S  0.69512049  0.72137694  0.82484763    -0.28000
H384        H  0.65183065  0.79490628  0.85234259     0.08200
H385        H  0.62951126  0.99273548  0.93373294     0.26600
H386        H  0.74531226  0.91348191  0.74710467     0.21400
H387        H  0.66223799  0.72678981  0.85484864     0.26800
H388        H  0.62433886  0.85207191  0.75741514     0.15600
C389        C  0.39746141  0.17156456  0.86005340    -0.11700
C390        C  0.35457136  0.16647173  0.87034573     0.14800
C391        C  0.34284846  0.13679174  0.90196563     0.01700
C392        C  0.37376860  0.11031359  0.91974519    -0.16100
C393        C  0.41636515  0.11373121  0.90767583    -0.10900
C394        C  0.42853310  0.14546865  0.87839056     0.08500
C395        C  0.32265099  0.18754693  0.84260493     0.09500
S396        S  0.28888586  0.13026148  0.91961169    -0.25200
H397        H  0.36438910  0.08618788  0.94248646     0.19800
S398        S  0.48213236  0.15137571  0.85974231    -0.30900
H399        H  0.40638927  0.19416505  0.83542242     0.10100
C400        C  0.31761546  0.23085532  0.84274610     0.03300
C401        C  0.28912581  0.24929567  0.81339153    -0.13200
C402        C  0.26598823  0.22600472  0.78170385    -0.08900
C403        C  0.27009972  0.18130144  0.78380330     0.06700
C404        C  0.29869554  0.16333200  0.81388625    -0.13900
S405        S  0.34787670  0.26290830  0.87988264    -0.30900
H406        H  0.28663796  0.28296494  0.81351299     0.11000
S407        S  0.23834852  0.14443495  0.75338204    -0.28000
H408        H  0.30248480  0.12969979  0.81542990     0.08200
H409        H  0.48834235  0.10844286  0.85308199     0.26600
H410        H  0.33744161  0.30168849  0.86067344     0.21400
H411        H  0.26646668  0.11022331  0.75643243     0.26800
H412        H  0.27560431  0.17139210  0.91022831     0.15600
C413        C  0.65076710  0.87759699  0.11162623    -0.11700
C414        C  0.64289569  0.83474512  0.11529702     0.14800
C415        C  0.61219777  0.81628958  0.08789726     0.01700
C416        C  0.58893887  0.84137173  0.05870886    -0.16100
C417        C  0.59456864  0.88496237  0.05695328    -0.10900
C418        C  0.62757781  0.90279826  0.08253666     0.08500
C419        C  0.66665103  0.81056556  0.14878420     0.09500
S420        S  0.59962727  0.76138004  0.09003813    -0.25200
H421        H  0.56433100  0.82684582  0.03923911     0.19800
S422        S  0.64215491  0.95718408  0.08042614    -0.30900
H423        H  0.67511442  0.89158507  0.13192384     0.10100
C424        C  0.69863059  0.78227883  0.13772237     0.03300
C425        C  0.72012812  0.76018822  0.17064665    -0.13200
C426        C  0.71191838  0.76606107  0.21570287    -0.08900
C427        C  0.68004988  0.79649552  0.22602874     0.06700
C428        C  0.65784283  0.81753523  0.19255420    -0.13900
S429        S  0.71406046  0.77620698  0.08158435    -0.30900
H430        H  0.74573481  0.74061458  0.16011158     0.11000
S431        S  0.66668815  0.81006971  0.28134349    -0.28000
H432        H  0.63357327  0.84026969  0.20035138     0.08200
H433        H  0.63693345  0.96079256  0.03514895     0.26600
H434        H  0.75025774  0.75122151  0.08925819     0.21400
H435        H  0.63177817  0.83628296  0.27199842     0.26800
H436        H  0.60832882  0.75565307  0.13462838     0.15600
C437        C  0.38111804  0.82457535  0.88147469    -0.11700
C438        C  0.36129517  0.84042852  0.84352698     0.14800
C439        C  0.37039824  0.88168427  0.83024074     0.01700
C440        C  0.39784983  0.90622036  0.85527999    -0.16100
C441        C  0.41779205  0.89066626  0.89331004    -0.10900
C442        C  0.40950789  0.84898485  0.90610279     0.08500
C443        C  0.32941963  0.81462539  0.81960995     0.09500
S444        S  0.34780171  0.90499989  0.78162593    -0.25200
H445        H  0.40397372  0.93793130  0.84458585     0.19800
S446        S  0.43121367  0.82657404  0.95533130    -0.30900
H447        H  0.37392614  0.79315678  0.89232593     0.10100
C448        C  0.34088948  0.77879323  0.79640817     0.03300
C449        C  0.30993569  0.75712130  0.77237587    -0.13200
C450        C  0.26706655  0.77130191  0.76794763    -0.08900
C451        C  0.25566660  0.80579863  0.79508836     0.06700
C452        C  0.28681975  0.82691754  0.81960726    -0.13900
S453        S  0.39541316  0.76096015  0.79650134    -0.30900
H454        H  0.32001934  0.72818905  0.75809317     0.11000
S455        S  0.20200319  0.82466662  0.79938290    -0.28000
H456        H  0.27810911  0.85367635  0.83899514     0.08200
H457        H  0.47344239  0.83079961  0.94179083     0.26600
H458        H  0.38970409  0.72662159  0.76876690     0.21400
H459        H  0.21051498  0.86200191  0.82162582     0.26800
H460        H  0.34756400  0.86795058  0.75731500     0.15600
C461        C  0.91026328  0.16297396  0.62120943    -0.11700
C462        C  0.87712687  0.14503948  0.64496748     0.14800
C463        C  0.86746436  0.10240777  0.63810657     0.01700
C464        C  0.89123922  0.07903872  0.60834638    -0.16100
C465        C  0.92340612  0.09740374  0.58334163    -0.10900
C466        C  0.93315413  0.13999503  0.59039077     0.08500
C467        C  0.85215181  0.17258544  0.67452104     0.09500
S468        S  0.82392569  0.07627559  0.66430874    -0.25200
H469        H  0.88290650  0.04664836  0.60299989     0.19800
S470        S  0.97539502  0.16552819  0.56141744    -0.30900
H471        H  0.91794250  0.19546346  0.62670238     0.10100
C472        C  0.85133081  0.16676141  0.71988481     0.03300
C473        C  0.82595679  0.19309597  0.74541162    -0.13200
C474        C  0.80024269  0.22554105  0.72723673    -0.08900
C475        C  0.80799540  0.23548061  0.68232971     0.06700
C476        C  0.83124314  0.20742802  0.65663990    -0.13900
S477        S  0.88361005  0.12668502  0.74563109    -0.30900
H478        H  0.82484878  0.18735769  0.78005334     0.11000
S479        S  0.79585418  0.28560622  0.65723497    -0.28000
H480        H  0.83452383  0.21340691  0.62213065     0.08200
H481        H  0.96572692  0.20658093  0.57418243     0.26600
H482        H  0.86698791  0.13087426  0.78766715     0.21400
H483        H  0.81832858  0.28043629  0.61835370     0.26800
H484        H  0.79831928  0.11186644  0.66988096     0.15600
C485        C  0.67964943  0.20350241  0.83427553    -0.11700
C486        C  0.68123848  0.16058072  0.82549414     0.14800
C487        C  0.70976046  0.14661935  0.79372620     0.01700
C488        C  0.73592118  0.17519271  0.77212223    -0.16100
C489        C  0.73730284  0.21850529  0.78246726    -0.10900
C490        C  0.70666473  0.23237626  0.81348103     0.08500
C491        C  0.65120060  0.13146725  0.84802194     0.09500
S492        S  0.71471580  0.09227672  0.77915624    -0.25200
H493        H  0.75450390  0.16243432  0.74617547     0.19800
S494        S  0.70283475  0.28618209  0.83031365    -0.30900
H495        H  0.65733189  0.21443436  0.85824342     0.10100
C496        C  0.65377055  0.12332066  0.89318786     0.03300
C497        C  0.62411011  0.09649903  0.91290844    -0.13200
C498        C  0.59186057  0.07666724  0.88855947    -0.08900
C499        C  0.59095295  0.08325587  0.84273495     0.06700
C500        C  0.61991285  0.11100168  0.82344962    -0.13900
S501        S  0.69542744  0.14645350  0.92571362    -0.30900
H502        H  0.62569900  0.09158083  0.94776402     0.11000
S503        S  0.55402378  0.05603405  0.80765631    -0.28000
H504        H  0.61834142  0.11686983  0.78873717     0.08200
H505        H  0.66081823  0.28419299  0.84512732     0.26600
H506        H  0.68533087  0.12657159  0.96518724     0.21400
H507        H  0.57111664  0.06891660  0.76771820     0.26800
H508        H  0.70611316  0.07619105  0.82079403     0.15600
C509        C  0.19004899  0.40075144  0.12752019    -0.11700
C510        C  0.17088384  0.37451909  0.15822730     0.14800
C511        C  0.12703001  0.37829204  0.16557048     0.01700
C512        C  0.10269363  0.40518947  0.13946716    -0.16100
C513        C  0.12104118  0.42968223  0.10648867    -0.10900
C514        C  0.16570911  0.42877985  0.10192721     0.08500
C515        C  0.19688164  0.34259197  0.18139435     0.09500
S516        S  0.09989469  0.34849517  0.20671820    -0.25200
H517        H  0.06872012  0.40586539  0.14434450     0.19800
S518        S  0.19225340  0.46320541  0.06434394    -0.30900
H519        H  0.22399185  0.39848533  0.12299844     0.10100
C520        C  0.19306693  0.29997777  0.17189166     0.03300
C521        C  0.21669790  0.27073699  0.19611918    -0.13200
C522        C  0.24586123  0.28238952  0.22925350    -0.08900
C523        C  0.24480152  0.32559211  0.24208930     0.06700
C524        C  0.22254056  0.35489526  0.21618824    -0.13900
S525        S  0.15874327  0.28276742  0.12810675    -0.30900
H526        H  0.21374428  0.23822551  0.18777317     0.11000
S527        S  0.26447328  0.34481629  0.29387706    -0.28000
H528        H  0.22287774  0.38770698  0.22452854     0.08200
H529        H  0.23389928  0.45423218  0.07858732     0.26600
H530        H  0.16553110  0.23960779  0.13391702     0.21400
H531        H  0.24999842  0.38635253  0.29049452     0.26800
H532        H  0.13422882  0.34587146  0.23618459     0.15600
C533        C  0.12841136  0.61189884  0.17095377    -0.11700
C534        C  0.15564200  0.64148039  0.15206520     0.14800
C535        C  0.15869909  0.64261019  0.10613656     0.01700
C536        C  0.13493352  0.61471821  0.08067200    -0.16100
C537        C  0.10681387  0.58590529  0.09940287    -0.10900
C538        C  0.10415909  0.58431833  0.14533105     0.08500
C539        C  0.18178598  0.66947725  0.18074038     0.09500
S540        S  0.19128148  0.67982501  0.07770243    -0.25200
H541        H  0.13725919  0.61670444  0.04555766     0.19800
S542        S  0.07190619  0.54667838  0.17325830    -0.30900
H543        H  0.12646611  0.60988276  0.20607758     0.10100
C544        C  0.16342476  0.69887105  0.20875121     0.03300
C545        C  0.18944011  0.72487432  0.23436861    -0.13200
C546        C  0.23439746  0.72615572  0.23021522    -0.08900
C547        C  0.25235726  0.69443023  0.20290248     0.06700
C548        C  0.22603266  0.66688973  0.17937894    -0.13900
S549        S  0.10645596  0.70477095  0.21089255    -0.30900
H550        H  0.17349500  0.74390520  0.25787993     0.11000
S551        S  0.30878638  0.68814831  0.19579599    -0.28000
H552        H  0.23997238  0.64332670  0.15878815     0.08200
H553        H  0.07904410  0.51446820  0.14337202     0.26600
H554        H  0.10609515  0.74296681  0.23332194     0.21400
H555        H  0.30785053  0.65829212  0.16244641     0.26800
H556        H  0.18697762  0.71218402  0.10809361     0.15600
C557        C  0.88339193  0.66921133  0.12301806    -0.11700
C558        C  0.86243182  0.64399439  0.15339516     0.14800
C559        C  0.86787933  0.60028150  0.15196175     0.01700
C560        C  0.89426751  0.58291759  0.12060078    -0.16100
C561        C  0.91652212  0.60807535  0.09103884    -0.10900
C562        C  0.90995905  0.65186751  0.09172175     0.08500
C563        C  0.83290417  0.66435286  0.18385081     0.09500
S564        S  0.84280765  0.56494577  0.18958918    -0.25200
H565        H  0.89791355  0.54934380  0.11986070     0.19800
S566        S  0.93197986  0.68718720  0.05214081    -0.30900
H567        H  0.87808724  0.70270879  0.12301988     0.10100
C568        C  0.84709917  0.69425354  0.21367828     0.03300
C569        C  0.81744772  0.71763749  0.23677333    -0.13200
C570        C  0.77303179  0.71263473  0.23077434    -0.03300
C571        C  0.75983488  0.67749968  0.20540879     0.06700
C572        C  0.78969186  0.65522925  0.18120162    -0.13900
S573        S  0.90322670  0.70246834  0.22267158    -0.30900
H574        H  0.82981569  0.73973770  0.25980442     0.11000
S575        S  0.70494620  0.66260984  0.19860835    -0.28000
H576        H  0.77910434  0.63146670  0.15868361     0.08200
H577        H  0.92330753  0.66111046  0.01644449     0.26600
H578        H  0.89963759  0.73230775  0.25583369     0.21400
H579        H  0.71293461  0.62123610  0.18566515     0.26800
H580        H  0.84217625  0.59275429  0.22480902     0.15600
C581        C  0.10316618  0.62595893  0.85081184    -0.11700
C582        C  0.12537668  0.66030862  0.86740573     0.14800
C583        C  0.12076961  0.67063303  0.91177220     0.01700
C584        C  0.09668368  0.64472859  0.93896823    -0.16100
C585        C  0.07612949  0.60899049  0.92285562    -0.10900
C586        C  0.07821220  0.60073666  0.87766951     0.08500
C587        C  0.15253768  0.68461141  0.83716484     0.09500
S588        S  0.14554561  0.71568493  0.93601250    -0.25200
H589        H  0.09512075  0.65190103  0.97332483     0.19800
S590        S  0.04916150  0.55909819  0.85193557    -0.30900
H591        H  0.10540240  0.61866443  0.81651538     0.10100
C592        C  0.19686264  0.68086387  0.83739476     0.03300
C593        C  0.22059899  0.70235919  0.80602925    -0.13200
C594        C  0.20168853  0.72782567  0.77285731    -0.08900
C595        C  0.15601797  0.73339773  0.77554796     0.06700
C596        C  0.13300240  0.71066482  0.80647198    -0.13900
S597        S  0.22323251  0.64696778  0.87643745    -0.30900
H598        H  0.25458045  0.69762946  0.80614829     0.11000
S599        S  0.12103619  0.76763215  0.74432130    -0.28000
H600        H  0.09872849  0.71380466  0.80727597     0.08200
H601        H  0.01328608  0.56317107  0.87847790     0.26600
H602        H  0.26363750  0.64825595  0.85754528     0.21400
H603        H  0.14706458  0.80227562  0.73978769     0.26800
H604        H  0.14895029  0.73958724  0.89773400     0.15600
C605        C  0.82510404  0.70670262  0.85406025    -0.11700
C606        C  0.84700869  0.67490936  0.83306736     0.14800
C607        C  0.84508519  0.67280142  0.78749556     0.01700
C608        C  0.81868036  0.70055973  0.76426850    -0.16100
C609        C  0.79308021  0.73110109  0.78495389    -0.10900
C610        C  0.79990977  0.73588982  0.83121213     0.08500
C611        C  0.86984952  0.64361603  0.86044931     0.09500
S612        S  0.87493724  0.63486677  0.75718054    -0.25200
H613        H  0.81687859  0.69722878  0.72925690     0.19800
S614        S  0.78145983  0.77907253  0.86406021    -0.30900
H615        H  0.82794442  0.70869240  0.88916057     0.10100
C616        C  0.90863806  0.65300481  0.88110327     0.03300
C617        C  0.92651433  0.62441041  0.91092180    -0.13200
C618        C  0.90613042  0.58660029  0.92135314    -0.08900
C619        C  0.86742935  0.57694843  0.89962733     0.06700
C620        C  0.85004747  0.60551014  0.86931856    -0.13900
S621        S  0.93494725  0.70187120  0.87010519    -0.30900
H622        H  0.95594925  0.63236246  0.92725593     0.11000
S623        S  0.83931152  0.52885411  0.90984133    -0.28000
H624        H  0.82014271  0.59882890  0.85322395     0.08200
H625        H  0.81486058  0.77808909  0.89485482     0.26600
H626        H  0.97278060  0.69249605  0.89294455     0.21400
H627        H  0.80373192  0.53730190  0.88313668     0.26800
H628        H  0.90888967  0.63138912  0.78705632     0.15600
C629        C  0.15485807  0.27643623  0.84255643    -0.11700
C630        C  0.15872993  0.31939178  0.84752980     0.14800
C631        C  0.18876372  0.34127125  0.82300058     0.01700
C632        C  0.21288510  0.31999070  0.79238682    -0.16100
C633        C  0.20810544  0.27654622  0.78462764    -0.10900
C634        C  0.17933513  0.25459733  0.81247897     0.08500
C635        C  0.13057434  0.34058121  0.87837079     0.09500
S636        S  0.19827298  0.39649702  0.82937957    -0.25200
H637        H  0.23696714  0.33806060  0.77640576     0.19800
S638        S  0.17090179  0.19893688  0.80996733    -0.30900
H639        H  0.13180748  0.26002749  0.86206145     0.10100
C640        C  0.09627782  0.36533633  0.86360712     0.03300
C641        C  0.07315528  0.38858196  0.89368490    -0.13200
C642        C  0.08311753  0.38672888  0.93830997    -0.08900
C643        C  0.11545411  0.35918391  0.95323649     0.06700
C644        C  0.13905732  0.33667515  0.92303805    -0.13900
S645        S  0.08273032  0.36807897  0.80639885    -0.30900
H646        H  0.04813742  0.40940737  0.88233061     0.11000
S647        S  0.13108026  0.35474411  0.00962615    -0.28000
H648        H  0.16514289  0.31705289  0.93426439     0.08200
H649        H  0.15273229  0.19402053  0.85127013     0.26600
H650        H  0.04499965  0.39122093  0.81102817     0.21400
H651        H  0.09048861  0.34249522  0.02313066     0.26800
H652        H  0.18656367  0.39903297  0.87325449     0.15600
C653        C  0.77662299  0.34581068  0.16538633    -0.11700
C654        C  0.82054167  0.33995548  0.16741901     0.14800
C655        C  0.83691429  0.30757781  0.19406941     0.01700
C656        C  0.80940178  0.28294847  0.21899852    -0.16100
C657        C  0.76465308  0.28871826  0.21828565    -0.10900
C658        C  0.74862447  0.32087344  0.18949769     0.08500
C659        C  0.84811447  0.36950188  0.14271981     0.09500
S660        S  0.89275671  0.29507570  0.19682475    -0.25200
H661        H  0.82389809  0.25785533  0.23742412     0.19800
S662        S  0.69281339  0.33397270  0.18506991    -0.30900
H663        H  0.76430473  0.37102890  0.14521884     0.10100
C664        C  0.84645471  0.37221655  0.09686098     0.03300
C665        C  0.87133089  0.40193753  0.07507913    -0.13200
C666        C  0.89891094  0.42871755  0.09781219    -0.08900
C667        C  0.90047748  0.42587034  0.14391656     0.06700
C668        C  0.87509909  0.39657138  0.16561974    -0.13900
S669        S  0.81457822  0.33610441  0.06574836    -0.30900
H670        H  0.87071871  0.40300065  0.03986148     0.11000
S671        S  0.93370479  0.45858573  0.17739874    -0.28000
H672        H  0.87619312  0.39500350  0.20084765     0.08200
H673        H  0.69524793  0.36338874  0.15102528     0.26600
H674        H  0.82539406  0.35115401  0.02424617     0.21400
H675        H  0.93365648  0.49305358  0.14906736     0.26800
H676        H  0.90227154  0.30848542  0.15441362     0.15600
C677        C  0.83437621  0.28777687  0.86325082    -0.11700
C678        C  0.85871427  0.31982887  0.84503009     0.14800
C679        C  0.85863151  0.32388547  0.79933746     0.01700
C680        C  0.83000453  0.30066988  0.77409636    -0.16100
C681        C  0.80153044  0.27116863  0.79212303    -0.10900
C682        C  0.80824160  0.26166746  0.83753211     0.08500
C683        C  0.88409916  0.34799413  0.87432580     0.09500
S684        S  0.89490590  0.35752088  0.77084020    -0.25200
H685        H  0.82961633  0.30630497  0.73943228     0.19800
S686        S  0.79020712  0.21415103  0.86357038    -0.30900
H687        H  0.83667645  0.28265114  0.89804249     0.10100
C688        C  0.87719747  0.39164724  0.87503338     0.03300
C689        C  0.90228383  0.41706605  0.90222983    -0.13200
C690        C  0.93346727  0.40007776  0.93048635    -0.08900
C691        C  0.93958007  0.35608456  0.93059880     0.06700
C692        C  0.91520639  0.33081708  0.90240245    -0.13900
S693        S  0.83424601  0.41493866  0.84371708    -0.30900
H694        H  0.89622089  0.45035277  0.90280746     0.11000
S695        S  0.97918877  0.33149050  0.96532770    -0.28000
H696        H  0.92056703  0.29739060  0.90193511     0.08200
H697        H  0.81278954  0.21787393  0.90306325     0.26600
H698        H  0.84730641  0.45658691  0.84837151     0.21400
H699        H  0.96585450  0.29008057  0.95899946     0.26800
H700        H  0.92726674  0.35625184  0.80268321     0.15600
C701        C  0.65647526  0.61911553  0.63206976    -0.11700
C702        C  0.63945713  0.65056927  0.65836107     0.14800
C703        C  0.59515960  0.65795336  0.65687352     0.01700
C704        C  0.56947917  0.63488687  0.62838105    -0.16100
C705        C  0.58645945  0.60308691  0.60235838    -0.10900
C706        C  0.63061741  0.59475397  0.60489685     0.08500
C707        C  0.66920405  0.67685775  0.68441360     0.09500
S708        S  0.56928120  0.69588508  0.69085092    -0.25200
H709        H  0.53570984  0.64141678  0.62706452     0.19800
S710        S  0.65532027  0.55504469  0.57198538    -0.30900
H711        H  0.69048244  0.61420288  0.63233978     0.10100
C712        C  0.69755038  0.65948281  0.71529083     0.03300
C713        C  0.72661735  0.68525903  0.73710154    -0.13200
C714        C  0.72897696  0.72899968  0.72934025    -0.08900
C715        C  0.69848205  0.74615919  0.69887379     0.06700
C716        C  0.67021650  0.71986871  0.67662751    -0.13900
S717        S  0.69545855  0.60448990  0.72891189    -0.30900
H718        H  0.74579841  0.67067318  0.76212178     0.11000
S719        S  0.69573510  0.80119561  0.68494843    -0.28000
H720        H  0.64888111  0.73286383  0.65215857     0.08200
H721        H  0.69622368  0.55749996  0.59050787     0.26600
H722        H  0.73334023  0.60271364  0.75350468     0.21400
H723        H  0.65572244  0.80095392  0.66424058     0.26800
H724        H  0.59818810  0.69240695  0.72588834     0.15600
C725        C  0.32459376  0.37246473  0.60136275    -0.11700
C726        C  0.32496476  0.38016692  0.64613476     0.14800
C727        C  0.35225507  0.41087558  0.66330593     0.01700
C728        C  0.38020502  0.43161428  0.63564354    -0.16100
C729        C  0.38116741  0.42263797  0.59102312    -0.10900
C730        C  0.35250652  0.39310592  0.57356605     0.08500
C731        C  0.30283859  0.35005729  0.67435283     0.09500
S732        S  0.35401488  0.42357430  0.72038078    -0.25200
H733        H  0.40198151  0.45432458  0.64916219     0.19800
S734        S  0.35410384  0.37791220  0.51702347    -0.30900
H735        H  0.30410896  0.34824150  0.58871892     0.10100
C736        C  0.25859835  0.34700218  0.67482254     0.03300
C737        C  0.23977072  0.31465154  0.69841475    -0.13200
C738        C  0.26379961  0.28512190  0.72327760    -0.08900
C739        C  0.30941929  0.28754833  0.71999528     0.06700
C740        C  0.32749358  0.32049015  0.69658754    -0.13900
S741        S  0.22604800  0.38493578  0.64605787    -0.30900
H742        H  0.20552510  0.31322206  0.69890732     0.11000
S743        S  0.34732070  0.24780772  0.73776610    -0.28000
H744        H  0.36162664  0.32206493  0.69326318     0.08200
H745        H  0.32490401  0.34494038  0.51948065     0.26600
H746        H  0.18665554  0.37050984  0.66085246     0.21400
H747        H  0.38318385  0.27365355  0.74073676     0.26800
H748        H  0.31221009  0.41138560  0.72936710     0.15600
C749        C  0.68521038  0.34846752  0.32020440    -0.11700
C750        C  0.64975638  0.32824707  0.33698670     0.14800
C751        C  0.64248143  0.28645406  0.32520216     0.01700
C752        C  0.67070830  0.26618429  0.29730124    -0.16100
C753        C  0.70532787  0.28663973  0.27728921    -0.10900
C754        C  0.71395836  0.32836611  0.29236699     0.08500
C755        C  0.62298206  0.35142803  0.36868198     0.09500
S756        S  0.59745177  0.25704163  0.34396919    -0.25200
H757        H  0.66434544  0.23396348  0.28993975     0.19800
S758        S  0.76314287  0.35607770  0.28310826    -0.30900
H759        H  0.69137296  0.37998473  0.33103707     0.10100
C760        C  0.62221897  0.34066519  0.41327233     0.03300
C761        C  0.59853909  0.36514895  0.44221281    -0.13200
C762        C  0.57663045  0.40137529  0.42818765    -0.08900
C763        C  0.57752734  0.41194802  0.38328940     0.06700
C764        C  0.60068475  0.38711530  0.35438863    -0.13900
S765        S  0.65374080  0.29749127  0.43407569    -0.30900
H766        H  0.59858778  0.35688444  0.47641275     0.11000
S767        S  0.54968572  0.45633692  0.36035082    -0.28000
H768        H  0.60151071  0.39581661  0.32027176     0.08200
H769        H  0.75274167  0.39426542  0.30277980     0.26600
H770        H  0.64772898  0.30557523  0.47852281     0.21400
H771        H  0.51267584  0.44948913  0.38435333     0.26800
H772        H  0.57060820  0.29145934  0.35109255     0.15600
C773        C  0.37284831  0.66283306  0.41832201    -0.11700
C774        C  0.36479706  0.65050197  0.37527978     0.14800
C775        C  0.38487599  0.61414562  0.35969409     0.01700
C776        C  0.41301784  0.59162567  0.38675867    -0.16100
C777        C  0.42149047  0.60362984  0.43003712    -0.10900
C778        C  0.40041364  0.63973770  0.44604961     0.08500
C779        C  0.33894293  0.67819481  0.34587479     0.09500
S780        S  0.37606244  0.59493105  0.30529014    -0.25200
H781        H  0.42800930  0.56388146  0.37382346     0.19800
S782        S  0.40699536  0.65652959  0.50179367    -0.30900
H783        H  0.35762788  0.69094405  0.43002004     0.10100
C784        C  0.29442977  0.67750004  0.34471134     0.03300
C785        C  0.27210622  0.70274508  0.31437240    -0.13200
C786        C  0.29263044  0.73167284  0.28631746    -0.08900
C787        C  0.33849199  0.72991736  0.28653952     0.06700
C788        C  0.36011924  0.70391885  0.31663084    -0.13900
S789        S  0.26594819  0.64470002  0.38224154    -0.30900
H790        H  0.23780545  0.70177068  0.31421990     0.11000
S791        S  0.37250587  0.75378730  0.24634119    -0.28000
H792        H  0.39443604  0.70225437  0.31649696     0.08200
H793        H  0.37627208  0.68856745  0.50075923     0.26600
H794        H  0.22497200  0.65869060  0.37057816     0.21400
H795        H  0.41044894  0.75321861  0.27087594     0.26800
H796        H  0.33406937  0.60943231  0.30083917     0.15600
C797        C  0.61700185  0.65360553  0.40176951    -0.11700
C798        C  0.64389791  0.63532327  0.37117159     0.14800
C799        C  0.65096510  0.59169041  0.37253021     0.01700
C800        C  0.63137972  0.56749021  0.40456753    -0.16100
C801        C  0.60409503  0.58567189  0.43496200    -0.10900
C802        C  0.59696659  0.62932535  0.43359557     0.08500
C803        C  0.66704642  0.66303972  0.34086803     0.09500
S804        S  0.68463150  0.56503183  0.33442129    -0.25200
H805        H  0.63693038  0.53404301  0.40531789     0.19800
S806        S  0.56492847  0.65491117  0.47401993    -0.30900
H807        H  0.61260473  0.68717486  0.40121145     0.10100
C808        C  0.64634997  0.68523343  0.30723280     0.03300
C809        C  0.67000899  0.71053156  0.27911490    -0.13200
C810        C  0.71447681  0.71585974  0.28423696    -0.08900
C811        C  0.73466207  0.69290023  0.31917088     0.06700
C812        C  0.71073291  0.66719773  0.34643994    -0.13900
S813        S  0.58983494  0.67986947  0.29877619    -0.30900
H814        H  0.65329750  0.72472972  0.25208146     0.11000
S815        S  0.79089335  0.69532556  0.33135167    -0.28000
H816        H  0.72626562  0.64980267  0.37248135     0.08200
H817        H  0.56891937  0.69584540  0.45773103     0.26600
H818        H  0.58548495  0.71024200  0.26572292     0.21400
H819        H  0.78836414  0.68417162  0.37560377     0.26800
H820        H  0.67819315  0.59316914  0.29962780     0.15600
C821        C  0.62560372  0.39013658  0.67776874    -0.11700
C822        C  0.66381318  0.37462811  0.66119101     0.14800
C823        C  0.67577126  0.38723720  0.61889537     0.01700
C824        C  0.64838158  0.41257916  0.59337965    -0.16100
C825        C  0.60907456  0.42681721  0.60912886    -0.10900
C826        C  0.59873619  0.41646752  0.65286307     0.08500
C827        C  0.68924313  0.34359964  0.68763050     0.09500
S828        S  0.72517719  0.37097784  0.59523762    -0.25200
H829        H  0.65747954  0.42022232  0.56040198     0.19800
S830        S  0.55199521  0.43592009  0.67941252    -0.30900
H831        H  0.61645582  0.38140161  0.71045820     0.10100
C832        C  0.71617705  0.35579806  0.72193900     0.03300
C833        C  0.74044678  0.32559267  0.74485572    -0.13200
C834        C  0.73973268  0.28227946  0.73441193    -0.08900
C835        C  0.70986887  0.27035262  0.70116912     0.06700
C836        C  0.68589025  0.30099244  0.67830270    -0.13900
S837        S  0.72011843  0.41029400  0.73632144    -0.30900
H838        H  0.75908371  0.33653075  0.77196849     0.11000
S839        S  0.70386583  0.21672144  0.68409585    -0.28000
H840        H  0.66464652  0.29183713  0.65219513     0.08200
H841        H  0.55521156  0.47639593  0.66160846     0.26600
H842        H  0.75117057  0.40558799  0.76924598     0.21400
H843        H  0.66903337  0.22270486  0.65571841     0.26800
H844        H  0.74837927  0.36998996  0.63455328     0.15600
C845        C  0.27701371  0.64012272  0.69004131    -0.11700
C846        C  0.31080405  0.65488350  0.66520100     0.14800
C847        C  0.31492399  0.69829496  0.65926406     0.01700
C848        C  0.28911143  0.72556310  0.68265168    -0.16100
C849        C  0.25746443  0.71149062  0.71177905    -0.10900
C850        C  0.24895101  0.66744520  0.71135955     0.08500
C851        C  0.33971659  0.62432809  0.64391582     0.09500
S852        S  0.35197638  0.72108564  0.62168193    -0.25200
H853        H  0.29458416  0.75869694  0.67883499     0.19800
S854        S  0.19982478  0.64444559  0.72942874    -0.30900
H855        H  0.27165342  0.60674878  0.69120724     0.10100
C856        C  0.38352155  0.62250435  0.65376259     0.03300
C857        C  0.41002703  0.59572695  0.63003887    -0.13200
C858        C  0.39376198  0.56995801  0.59690697    -0.08900
C859        C  0.34915278  0.56956300  0.58959493     0.06700
C860        C  0.32294532  0.59692071  0.61287978    -0.13900
S861        S  0.40569807  0.65399429  0.69689514    -0.30900
H862        H  0.44383557  0.59589099  0.63653019     0.11000
S863        S  0.32439209  0.53381512  0.55180092    -0.28000
H864        H  0.28908921  0.59741743  0.60654199     0.08200
H865        H  0.21505166  0.60327220  0.73438300     0.26600
H866        H  0.44829706  0.64211554  0.69123717     0.21400
H867        H  0.28486672  0.55433035  0.54897900     0.26800
H868        H  0.35149858  0.68792022  0.59190267     0.15600
C869        C  0.37212148  0.36732595  0.37818161    -0.11700
C870        C  0.39016727  0.32787960  0.37154303     0.14800
C871        C  0.42879338  0.31708817  0.39250138     0.01700
C872        C  0.44803805  0.34589351  0.42055334    -0.16100
C873        C  0.43016957  0.38566818  0.42668254    -0.10900
C874        C  0.39161944  0.39640189  0.40538172     0.08500
C875        C  0.36715200  0.29979394  0.34183937     0.09500
S876        S  0.45491207  0.26745119  0.38490627    -0.25200
H877        H  0.47749987  0.33759317  0.43702356     0.19800
S878        S  0.36555882  0.44611517  0.41440577    -0.30900
H879        H  0.34242499  0.37514313  0.36195730     0.10100
C880        C  0.33701653  0.27150239  0.35720491     0.03300
C881        C  0.30895242  0.25269105  0.32768495    -0.13200
C882        C  0.30796737  0.26349199  0.28271301    -0.08900
C883        C  0.34139279  0.29007842  0.26764688     0.06700
C884        C  0.37016498  0.30742199  0.29735202    -0.13900
S885        S  0.33296434  0.26092445  0.41483267    -0.30900
H886        H  0.28803804  0.22942080  0.34061393     0.11000
S887        S  0.34573329  0.30790688  0.21198403    -0.28000
H888        H  0.39332678  0.32985666  0.28623207     0.08200
H889        H  0.32876141  0.43832689  0.38952213     0.26600
H890        H  0.29664860  0.23564937  0.41253181     0.21400
H891        H  0.38901517  0.31836213  0.21395416     0.26800
H892        H  0.43844125  0.25955535  0.34312122     0.15600
loop_ 
_geom_bond_atom_site_label_1 
_geom_bond_atom_site_label_2 
_geom_bond_distance 
_geom_bond_site_symmetry_2 
_ccdc_geom_bond_type 
O1            C9   1.272       .  A
O1          Co21   2.022       .  S
O2           C10   1.297       .  A
O2          Co22   2.108       .  S
O3           C11   1.260       .  A
O3          Co23   1.975       .  S
O4           C12   1.268       .  A
O4          Co24   1.976       .  S
O5           C11   1.267       .  A
O5          Co22   2.029       .  S
O6           C12   1.279       .  A
O6          Co21   2.031       .  S
O7           C10   1.268       .  A
O7          Co24   1.889       .  S
O8            C9   1.260       .  A
O8          Co23   1.955       .  S
C9          C873   1.471       .  S
C10         C801   1.480       .  S
C11         C777   1.504       .  S
C12         C762   1.497       .  S
O13          C26   1.261       .  A
O13         Co21   1.981       .  S
O14          C27   1.273       .  A
O14         Co22   1.981       .  S
O15          C28   1.271       .  A
O15         Co23   2.012       .  S
O16          C29   1.298       .  A
O16         Co24   2.110       .  S
O17          C29   1.268       .  A
O17         Co22   1.890       .  S
O18          C28   1.264       .  A
O18         Co21   1.969       .  S
O19          C26   1.272       .  A
O19         Co24   2.036       .  S
O20          C27   1.277       .  A
O20         Co23   2.023       .  S
Co21         O25   2.039       .  S
Co22         O25   2.002       .  S
Co23         O25   2.026       .  S
Co24         O25   1.999       .  S
C26         C825   1.509       .  S
C27         C858   1.497       .  S
C28         C729   1.474       .  S
C29         C705   1.488       .  S
O30          C38   1.280       .  A
O30         Co50   2.041   1_656  S
O31          C39   1.267       .  A
O31         Co51   2.019   1_556  S
O32          C40   1.267       .  A
O32         Co52   1.892       .  S
O33          C41   1.261       .  A
O33         Co53   1.958       .  S
O34          C40   1.298       .  A
O34         Co51   2.111   1_656  S
O35          C41   1.270   1_554  A
O35         Co50   2.017       .  S
O36          C39   1.260       .  A
O36         Co53   1.980       .  S
O37          C38   1.273       .  A
O37         Co52   1.984       .  S
C38         C690   1.505       .  S
C39         C585   1.492       .  S
C40         C618   1.494       .  S
C41         C642   1.472       .  S
O42          C55   1.261       .  A
O42         Co50   1.957       .  S
O43          C56   1.267       .  A
O43         Co51   1.888   1_655  S
O44          C57   1.268       .  A
O44         Co52   2.023   1_554  S
O45          C58   1.279       .  A
O45         Co53   2.034   1_554  S
O46          C58   1.272       .  A
O46         Co51   1.990       .  S
O47          C57   1.258       .  A
O47         Co50   1.977   1_655  S
O48          C55   1.274       .  A
O48         Co53   2.030   1_554  S
O49          C56   1.297       .  A
O49         Co52   2.101   1_554  S
Co50         O54   2.032       .  S
Co51         O54   2.001       .  S
Co52         O54   2.004   1_656  S
Co53         O54   2.033   1_556  S
C55         C513   1.489       .  S
C56         C561   1.482       .  S
C57         C666   1.494       .  S
C58         C537   1.497       .  S
C59         C474   1.587       .  S
C59         C489   1.590       .  S
C59         C681   1.591       .  S
C59         C834   1.589       .  S
O60          C68   1.267       .  A
O60         Co80   2.007       .  S
O61          C69   1.253       .  A
O61         Co81   1.983   1_554  S
O62          C70   1.263       .  A
O62         Co82   1.970   1_565  S
O63          C71   1.250       .  A
O63         Co83   1.994   1_545  S
O64          C70   1.275       .  A
O64         Co81   2.034       .  S
O65          C71   1.241       .  A
O65         Co80   1.969   1_554  S
O66          C69   1.255       .  A
O66         Co83   2.001       .  S
O67          C68   1.261       .  A
O67         Co82   1.966       .  S
C68         C393   1.464       .  S
C69         C354   1.488       .  S
C70         C441   1.493       .  S
C71         C321   1.467       .  S
O72          C85   1.271       .  A
O72         Co80   1.891   1_554  S
O73          C86   1.258       .  A
O73         Co81   1.986       .  S
O74          C87   1.268       .  A
O74         Co82   2.028       .  S
O75          C88   1.297       .  A
O75         Co83   2.080       .  S
O76          C88   1.272       .  A
O76         Co81   1.884   1_554  S
O77          C87   1.261       .  A
O77         Co80   1.996       .  S
O78          C85   1.300       .  A
O78         Co83   2.074   1_545  S
O79          C86   1.265       .  A
O79         Co82   2.004   1_565  S
Co80         O84   1.930   1_545  S
Co81         O84   1.944       .  S
Co82         O84   2.084   1_545  S
Co83         O84   2.243   1_554  S
C85         C297   1.477       .  S
C86         C369   1.485       .  S
C87         C498   1.509       .  S
C88         C417   1.489       .  S
C89         C282   1.572       .  S
C89         C450   1.594       .  S
C89         C594   1.583       .  S
C89         C849   1.585       .  S
O90          C98   1.279       .  A
O90        Co110   2.034       .  S
O91          C99   1.263       .  A
O91        Co111   2.013   1_455  S
O92         C100   1.270       .  A
O92        Co112   1.902       .  S
O93         C101   1.261       .  A
O93        Co113   1.959       .  S
O94         C100   1.294       .  A
O94        Co111   2.097       .  S
O95         C101   1.272       .  A
O95        Co110   2.014   1_455  S
O96          C99   1.260       .  A
O96        Co113   1.981   1_565  S
O97          C98   1.270       .  A
O97        Co112   1.976   1_545  S
C98         C465   1.495       .  S
C99         C273   1.491       .  S
C100        C177   1.489       .  S
C101        C129   1.475       .  S
O102        C115   1.261       .  A
O102       Co110   1.956   1_455  S
O103        C116   1.267       .  A
O103       Co111   1.883       .  S
O104        C117   1.269       .  A
O104       Co112   2.036   1_545  S
O105        C118   1.278       .  A
O105       Co113   2.030   1_565  S
O106        C118   1.272       .  A
O106       Co111   1.984   1_455  S
O107        C117   1.255       .  A
O107       Co110   1.970       .  S
O108        C115   1.273       .  A
O108       Co113   2.026       .  S
O109        C116   1.294       .  A
O109       Co112   2.095       .  S
Co110       O114   2.024   1_655  S
Co111       O114   2.002   1_665  S
Co112       O114   2.014   1_665  S
Co113       O114   2.033       .  S
C115        C162   1.493       .  S
C116        C234   1.483       .  S
C117        C258   1.504       .  S
C118        C210   1.497       .  S
C119        C225   1.573       .  S
C119        C426   1.580       .  S
C119        C570   1.575       .  S
C119        C810   1.577       .  S
C120        C153   1.576       .  S
C120        C330   1.567       .  S
C120        C522   1.577       .  S
C120        C882   1.572       .  S
C121        C249   1.585       .  S
C121        C306   1.573       .  S
C121        C657   1.583       .  S
C121        C753   1.585       .  S
C122        C201   1.597       .  S
C122        C345   1.586       .  S
C122        C546   1.604       .  S
C122        C786   1.583       .  S
C123        C138   1.576       .  S
C123        C402   1.562       .  S
C123        C633   1.583       .  S
C123        C738   1.577       .  S
C124        C186   1.585       .  S
C124        C378   1.570       .  S
C124        C609   1.580       .  S
C124        C714   1.587       .  S
C125        C126   1.402       .  A
C125        C130   1.397       .  A
C125        H135   1.084       .  S
C126        C131   1.476       .  S
C126        C127   1.410       .  A
C127        C128   1.396       .  A
C127        S132   1.804       .  S
C128        C129   1.406       .  A
C128        H133   1.084       .  S
C129        C130   1.414       .  A
C130        S134   1.803       .  S
C131        C136   1.398       .  A
C131        C140   1.395       .  A
S132        H148   1.406       .  S
S134        H145   1.406       .  S
C136        C137   1.395       .  A
C136        S141   1.809       .  S
C137        C138   1.423       .  A
C137        H142   1.075       .  S
C138        C139   1.435       .  A
C139        C140   1.406       .  A
C139        S143   1.804       .  S
C140        H144   1.083       .  S
S141        H146   1.407       .  S
S143        H147   1.407       .  S
C149        C150   1.394       .  A
C149        C154   1.403       .  A
C149        H159   1.083       .  S
C150        C155   1.481       .  S
C150        C151   1.405       .  A
C151        C152   1.398       .  A
C151        S156   1.804       .  S
C152        C153   1.418       .  A
C152        H157   1.081       .  S
C153        C154   1.441       .  A
C154        S158   1.816       .  S
C155        C160   1.406       .  A
C155        C164   1.400       .  A
S156        H172   1.406       .  S
S158        H169   1.406       .  S
C160        C161   1.400       .  A
C160        S165   1.808       .  S
C161        C162   1.411       .  A
C161        H166   1.082       .  S
C162        C163   1.422       .  A
C163        C164   1.405       .  A
C163        S167   1.810       .  S
C164        H168   1.083       .  S
S165        H170   1.407       .  S
S167        H171   1.406       .  S
C173        C174   1.398       .  A
C173        C178   1.403       .  A
C173        H183   1.083       .  S
C174        C179   1.479       .  S
C174        C175   1.411       .  A
C175        C176   1.400       .  A
C175        S180   1.806       .  S
C176        C177   1.407       .  A
C176        H181   1.084       .  S
C177        C178   1.422       .  A
C178        S182   1.810       .  S
C179        C184   1.401       .  A
C179        C188   1.393       .  A
S180        H196   1.405       .  S
S182        H193   1.406       .  S
C184        C185   1.402       .  A
C184        S189   1.807       .  S
C185        C186   1.424       .  A
C185        H190   1.077       .  S
C186        C187   1.433       .  A
C187        C188   1.402       .  A
C187        S191   1.801       .  S
C188        H192   1.083       .  S
S189        H194   1.407       .  S
S191        H195   1.407       .  S
C197        C198   1.397       .  A
C197        C202   1.412       .  A
C197        H207   1.082       .  S
C198        C203   1.497       .  S
C198        C199   1.406       .  A
C199        C200   1.403       .  A
C199        S204   1.804       .  S
C200        C201   1.426       .  A
C200        H205   1.083       .  S
C201        C202   1.448       .  A
C202        S206   1.816       .  S
C203        C208   1.412       .  A
C203        C212   1.403       .  A
S204        H220   1.405       .  S
S206        H217   1.406       .  S
C208        C209   1.412       .  A
C208        S213   1.806       .  S
C209        C210   1.410       .  A
C209        H214   1.083       .  S
C210        C211   1.417       .  A
C211        C212   1.407       .  A
C211        S215   1.807       .  S
C212        H216   1.083       .  S
S213        H218   1.407       .  S
S215        H219   1.406       .  S
C221        C222   1.392       .  A
C221        C226   1.401       .  A
C221        H231   1.083       .  S
C222        C227   1.468       .  S
C222        C223   1.401       .  A
C223        C224   1.392       .  A
C223        S228   1.806       .  S
C224        C225   1.420       .  A
C224        H229   1.079       .  S
C225        C226   1.437       .  A
C226        S230   1.811       .  S
C227        C232   1.404       .  A
C227        C236   1.396       .  A
S228        H244   1.405       .  S
S230        H241   1.406       .  S
C232        C233   1.396       .  A
C232        S237   1.809       .  S
C233        C234   1.408       .  A
C233        H238   1.082       .  S
C234        C235   1.422       .  A
C235        C236   1.401       .  A
C235        S239   1.809       .  S
C236        H240   1.083       .  S
S237        H242   1.407       .  S
S239        H243   1.407       .  S
C245        C246   1.394       .  A
C245        C250   1.409       .  A
C245        H255   1.083       .  S
C246        C251   1.493       .  S
C246        C247   1.408       .  A
C247        C248   1.404       .  A
C247        S252   1.804       .  S
C248        C249   1.417       .  A
C248        H253   1.080       .  S
C249        C250   1.447       .  A
C250        S254   1.816       .  S
C251        C256   1.410       .  A
C251        C260   1.398       .  A
S252        H268   1.404       .  S
S254        H265   1.406       .  S
C256        C257   1.412       .  A
C256        S261   1.805       .  S
C257        C258   1.411       .  A
C257        H262   1.082       .  S
C258        C259   1.425       .  A
C259        C260   1.406       .  A
C259        S263   1.811       .  S
C260        H264   1.083       .  S
S261        H266   1.407       .  S
S263        H267   1.407       .  S
C269        C270   1.404       .  A
C269        C274   1.408       .  A
C269        H279   1.083       .  S
C270        C275   1.493       .  S
C270        C271   1.412       .  A
C271        C272   1.403       .  A
C271        S276   1.807       .  S
C272        C273   1.405       .  A
C272        H277   1.083       .  S
C273        C274   1.419       .  A
C274        S278   1.809       .  S
C275        C280   1.405       .  A
C275        C284   1.401       .  A
S276        H292   1.407       .  S
S278        H289   1.407       .  S
C280        C281   1.405       .  A
C280        S285   1.807       .  S
C281        C282   1.421       .  A
C281        H286   1.080       .  S
C282        C283   1.434       .  A
C283        C284   1.409       .  A
C283        S287   1.810       .  S
C284        H288   1.083       .  S
S285        H290   1.407       .  S
S287        H291   1.406       .  S
C293        C294   1.401       .  A
C293        C298   1.401       .  A
C293        H303   1.083       .  S
C294        C299   1.478       .  S
C294        C295   1.413       .  A
C295        C296   1.401       .  A
C295        S300   1.807       .  S
C296        C297   1.405       .  A
C296        H301   1.084       .  S
C297        C298   1.413       .  A
C298        S302   1.808       .  S
C299        C304   1.402       .  A
C299        C308   1.391       .  A
S300        H316   1.402       .  S
S302        H313   1.407       .  S
C304        C305   1.403       .  A
C304        S309   1.807       .  S
C305        C306   1.421       .  A
C305        H310   1.076       .  S
C306        C307   1.439       .  A
C307        C308   1.402       .  A
C307        S311   1.809       .  S
C308        H312   1.083       .  S
S309        H314   1.407       .  S
S311        H315   1.407       .  S
C317        C318   1.403       .  A
C317        C322   1.399       .  A
C317        H327   1.084       .  S
C318        C323   1.476       .  S
C318        C319   1.411       .  A
C319        C320   1.395       .  A
C319        S324   1.805       .  S
C320        C321   1.402       .  A
C320        H325   1.085       .  S
C321        C322   1.411       .  A
C322        S326   1.803       .  S
C323        C328   1.400       .  A
C323        C332   1.394       .  A
S324        H340   1.407       .  S
S326        H337   1.406       .  S
C328        C329   1.399       .  A
C328        S333   1.807       .  S
C329        C330   1.422       .  A
C329        H334   1.074       .  S
C330        C331   1.435       .  A
C331        C332   1.399       .  A
C331        S335   1.810       .  S
C332        H336   1.083       .  S
S333        H338   1.407       .  S
S335        H339   1.407       .  S
C341        C342   1.397       .  A
C341        C346   1.408       .  A
C341        H351   1.083       .  S
C342        C347   1.495       .  S
C342        C343   1.407       .  A
C343        C344   1.404       .  A
C343        S348   1.805       .  S
C344        C345   1.422       .  A
C344        H349   1.076       .  S
C345        C346   1.439       .  A
C346        S350   1.803       .  S
C347        C352   1.414       .  A
C347        C356   1.403       .  A
S348        H364   1.406       .  S
S350        H361   1.407       .  S
C352        C353   1.412       .  A
C352        S357   1.805       .  S
C353        C354   1.406       .  A
C353        H358   1.083       .  S
C354        C355   1.414       .  A
C355        C356   1.401       .  A
C355        S359   1.799       .  S
C356        H360   1.084       .  S
S357        H362   1.407       .  S
S359        H363   1.406       .  S
C365        C366   1.403       .  A
C365        C370   1.403       .  A
C365        H375   1.084       .  S
C366        C371   1.478       .  S
C366        C367   1.408       .  A
C367        C368   1.396       .  A
C367        S372   1.805       .  S
C368        C369   1.407       .  A
C368        H373   1.084       .  S
C369        C370   1.417       .  A
C370        S374   1.800       .  S
C371        C376   1.400       .  A
C371        C380   1.395       .  A
S372        H388   1.406       .  S
S374        H385   1.405       .  S
C376        C377   1.400       .  A
C376        S381   1.808       .  S
C377        C378   1.422       .  A
C377        H382   1.072       .  S
C378        C379   1.437       .  A
C379        C380   1.403       .  A
C379        S383   1.812       .  S
C380        H384   1.082       .  S
S381        H386   1.407       .  S
S383        H387   1.406       .  S
C389        C390   1.402       .  A
C389        C394   1.396       .  A
C389        H399   1.084       .  S
C390        C395   1.470       .  S
C390        C391   1.408       .  A
C391        C392   1.393       .  A
C391        S396   1.804       .  S
C392        C393   1.402       .  A
C392        H397   1.083       .  S
C393        C394   1.411       .  A
C394        S398   1.801       .  S
C395        C400   1.394       .  A
C395        C404   1.397       .  A
S396        H412   1.406       .  S
S398        H409   1.404       .  S
C400        C401   1.392       .  A
C400        S405   1.807       .  S
C401        C402   1.427       .  A
C401        H406   1.080       .  S
C402        C403   1.437       .  A
C403        C404   1.403       .  A
C403        S407   1.810       .  S
C404        H408   1.083       .  S
S405        H410   1.407       .  S
S407        H411   1.407       .  S
C413        C414   1.399       .  A
C413        C418   1.398       .  A
C413        H423   1.084       .  S
C414        C419   1.478       .  S
C414        C415   1.410       .  A
C415        C416   1.399       .  A
C415        S420   1.805       .  S
C416        C417   1.408       .  A
C416        H421   1.083       .  S
C417        C418   1.422       .  A
C418        S422   1.804       .  S
C419        C424   1.398       .  A
C419        C428   1.396       .  A
S420        H436   1.405       .  S
S422        H433   1.403       .  S
C424        C425   1.398       .  A
C424        S429   1.809       .  S
C425        C426   1.425       .  A
C425        H430   1.073       .  S
C426        C427   1.435       .  A
C427        C428   1.404       .  A
C427        S431   1.811       .  S
C428        H432   1.083       .  S
S429        H434   1.407       .  S
S431        H435   1.406       .  S
C437        C438   1.407       .  A
C437        C442   1.409       .  A
C437        H447   1.083       .  S
C438        C443   1.494       .  S
C438        C439   1.412       .  A
C439        C440   1.399       .  A
C439        S444   1.804       .  S
C440        C441   1.408       .  A
C440        H445   1.084       .  S
C441        C442   1.415       .  A
C442        S446   1.797       .  S
C443        C448   1.402       .  A
C443        C452   1.397       .  A
S444        H460   1.406       .  S
S446        H457   1.406       .  S
C448        C449   1.406       .  A
C448        S453   1.808       .  S
C449        C450   1.428       .  A
C449        H454   1.075       .  S
C450        C451   1.435       .  A
C451        C452   1.409       .  A
C451        S455   1.800       .  S
C452        H456   1.082       .  S
S453        H458   1.406       .  S
S455        H459   1.406       .  S
C461        C462   1.404       .  A
C461        C466   1.406       .  A
C461        H471   1.083       .  S
C462        C467   1.497       .  S
C462        C463   1.416       .  A
C463        C464   1.406       .  A
C463        S468   1.806       .  S
C464        C465   1.408       .  A
C464        H469   1.084       .  S
C465        C466   1.417       .  A
C466        S470   1.807       .  S
C467        C472   1.406       .  A
C467        C476   1.399       .  A
S468        H484   1.405       .  S
S470        H481   1.407       .  S
C472        C473   1.408       .  A
C472        S477   1.806       .  S
C473        C474   1.422       .  A
C473        H478   1.080       .  S
C474        C475   1.438       .  A
C475        C476   1.408       .  A
C475        S479   1.813       .  S
C476        H480   1.083       .  S
S477        H482   1.407       .  S
S479        H483   1.406       .  S
C485        C486   1.403       .  A
C485        C490   1.415       .  A
C485        H495   1.083       .  S
C486        C491   1.504       .  S
C486        C487   1.408       .  A
C487        C488   1.404       .  A
C487        S492   1.805       .  S
C488        C489   1.425       .  A
C488        H493   1.076       .  S
C489        C490   1.435       .  A
C490        S494   1.805       .  S
C491        C496   1.412       .  A
C491        C500   1.403       .  A
S492        H508   1.406       .  S
S494        H505   1.407       .  S
C496        C497   1.412       .  A
C496        S501   1.806       .  S
C497        C498   1.412       .  A
C497        H502   1.082       .  S
C498        C499   1.423       .  A
C499        C500   1.410       .  A
C499        S503   1.809       .  S
C500        H504   1.083       .  S
S501        H506   1.407       .  S
S503        H507   1.406       .  S
C509        C510   1.403       .  A
C509        C514   1.408       .  A
C509        H519   1.083       .  S
C510        C515   1.480       .  S
C510        C511   1.408       .  A
C511        C512   1.394       .  A
C511        S516   1.805       .  S
C512        C513   1.409       .  A
C512        H517   1.083       .  S
C513        C514   1.417       .  A
C514        S518   1.807       .  S
C515        C520   1.402       .  A
C515        C524   1.394       .  A
S516        H532   1.405       .  S
S518        H529   1.407       .  S
C520        C521   1.399       .  A
C520        S525   1.808       .  S
C521        C522   1.417       .  A
C521        H526   1.078       .  S
C522        C523   1.441       .  A
C523        C524   1.406       .  A
C523        S527   1.814       .  S
C524        H528   1.083       .  S
S525        H530   1.407       .  S
S527        H531   1.406       .  S
C533        C534   1.408       .  A
C533        C538   1.410       .  A
C533        H543   1.084       .  S
C534        C539   1.504       .  S
C534        C535   1.416       .  A
C535        C536   1.405       .  A
C535        S540   1.805       .  S
C536        C537   1.408       .  A
C536        H541   1.084       .  S
C537        C538   1.416       .  A
C538        S542   1.801       .  S
C539        C544   1.406       .  A
C539        C548   1.398       .  A
S540        H556   1.406       .  S
S542        H553   1.404       .  S
C544        C545   1.410       .  A
C544        S549   1.807       .  S
C545        C546   1.425       .  A
C545        H550   1.075       .  S
C546        C547   1.439       .  A
C547        C548   1.411       .  A
C547        S551   1.805       .  S
C548        H552   1.082       .  S
S549        H554   1.407       .  S
S551        H555   1.406       .  S
C557        C558   1.404       .  A
C557        C562   1.398       .  A
C557        H567   1.084       .  S
C558        C563   1.479       .  S
C558        C559   1.410       .  A
C559        C560   1.396       .  A
C559        S564   1.804       .  S
C560        C561   1.406       .  A
C560        H565   1.081       .  S
C561        C562   1.416       .  A
C562        S566   1.803       .  S
C563        C568   1.401       .  A
C563        C572   1.396       .  A
S564        H580   1.406       .  S
S566        H577   1.408       .  S
C568        C569   1.397       .  A
C568        S573   1.809       .  S
C569        C570   1.420       .  A
C569        H574   1.076       .  S
C570        C571   1.433       .  A
C571        C572   1.401       .  A
C571        S575   1.808       .  S
C572        H576   1.083       .  S
S573        H578   1.406       .  S
S575        H579   1.407       .  S
C581        C582   1.402       .  A
C581        C586   1.402       .  A
C581        H591   1.084       .  S
C582        C587   1.489       .  S
C582        C583   1.414       .  A
C583        C584   1.405       .  A
C583        S588   1.805       .  S
C584        C585   1.408       .  A
C584        H589   1.084       .  S
C585        C586   1.418       .  A
C586        S590   1.803       .  S
C587        C592   1.402       .  A
C587        C596   1.391       .  A
S588        H604   1.405       .  S
S590        H601   1.408       .  S
C592        C593   1.406       .  A
C592        S597   1.805       .  S
C593        C594   1.425       .  A
C593        H598   1.081       .  S
C594        C595   1.453       .  A
C595        C596   1.404       .  A
C595        S599   1.813       .  S
C596        H600   1.085       .  S
S597        H602   1.407       .  S
S599        H603   1.390       .  S
C605        C606   1.393       .  A
C605        C610   1.403       .  A
C605        H615   1.084       .  S
C606        C611   1.482       .  S
C606        C607   1.403       .  A
C607        C608   1.401       .  A
C607        S612   1.803       .  S
C608        C609   1.422       .  A
C608        H613   1.083       .  S
C609        C610   1.445       .  A
C610        S614   1.814       .  S
C611        C616   1.406       .  A
C611        C620   1.400       .  A
S612        H628   1.406       .  S
S614        H625   1.408       .  S
C616        C617   1.403       .  A
C616        S621   1.806       .  S
C617        C618   1.410       .  A
C617        H622   1.082       .  S
C618        C619   1.421       .  A
C619        C620   1.406       .  A
C619        S623   1.808       .  S
C620        H624   1.083       .  S
S621        H626   1.407       .  S
S623        H627   1.406       .  S
C629        C630   1.390       .  A
C629        C634   1.399       .  A
C629        H639   1.083       .  S
C630        C635   1.472       .  S
C630        C631   1.404       .  A
C631        C632   1.395       .  A
C631        S636   1.806       .  S
C632        C633   1.421       .  A
C632        H637   1.078       .  S
C633        C634   1.437       .  A
C634        S638   1.805       .  S
C635        C640   1.406       .  A
C635        C644   1.400       .  A
S636        H652   1.405       .  S
S638        H649   1.407       .  S
C640        C641   1.399       .  A
C640        S645   1.806       .  S
C641        C642   1.404       .  A
C641        H646   1.083       .  S
C642        C643   1.415       .  A
C643        C644   1.397       .  A
C643        S647   1.801   1_556  S
C644        H648   1.084       .  S
S645        H650   1.407       .  S
S647        H651   1.407       .  S
C653        C654   1.397       .  A
C653        C658   1.407       .  A
C653        H663   1.082       .  S
C654        C659   1.497       .  S
C654        C655   1.409       .  A
C655        C656   1.406       .  A
C655        S660   1.804       .  S
C656        C657   1.422       .  A
C656        H661   1.077       .  S
C657        C658   1.439       .  A
C658        S662   1.810       .  S
C659        C664   1.412       .  A
C659        C668   1.404       .  A
S660        H676   1.406       .  S
S662        H673   1.406       .  S
C664        C665   1.407       .  A
C664        S669   1.807       .  S
C665        C666   1.408       .  A
C665        H670   1.083       .  S
C666        C667   1.420       .  A
C667        C668   1.406       .  A
C667        S671   1.804       .  S
C668        H672   1.084       .  S
S669        H674   1.407       .  S
S671        H675   1.401       .  S
C677        C678   1.402       .  A
C677        C682   1.415       .  A
C677        H687   1.082       .  S
C678        C683   1.505       .  S
C678        C679   1.410       .  A
C679        C680   1.403       .  A
C679        S684   1.805       .  S
C680        C681   1.421       .  A
C680        H685   1.079       .  S
C681        C682   1.440       .  A
C682        S686   1.811       .  S
C683        C688   1.413       .  A
C683        C692   1.406       .  A
S684        H700   1.406       .  S
S686        H697   1.406       .  S
C688        C689   1.410       .  A
C688        S693   1.807       .  S
C689        C690   1.409       .  A
C689        H694   1.082       .  S
C690        C691   1.420       .  A
C691        C692   1.413       .  A
C691        S695   1.807       .  S
C692        H696   1.082       .  S
S693        H698   1.405       .  S
S695        H699   1.407       .  S
C701        C702   1.403       .  A
C701        C706   1.404       .  A
C701        H711   1.083       .  S
C702        C707   1.493       .  S
C702        C703   1.415       .  A
C703        C704   1.402       .  A
C703        S708   1.804       .  S
C704        C705   1.406       .  A
C704        H709   1.084       .  S
C705        C706   1.417       .  A
C706        S710   1.808       .  S
C707        C712   1.406       .  A
C707        C716   1.396       .  A
S708        H724   1.406       .  S
S710        H721   1.407       .  S
C712        C713   1.404       .  A
C712        S717   1.808       .  S
C713        C714   1.421       .  A
C713        H718   1.076       .  S
C714        C715   1.439       .  A
C715        C716   1.404       .  A
C715        S719   1.812       .  S
C716        H720   1.083       .  S
S717        H722   1.407       .  S
S719        H723   1.407       .  S
C725        C726   1.400       .  A
C725        C730   1.399       .  A
C725        H735   1.083       .  S
C726        C731   1.476       .  S
C726        C727   1.411       .  A
C727        C728   1.399       .  A
C727        S732   1.804       .  S
C728        C729   1.404       .  A
C728        H733   1.084       .  S
C729        C730   1.415       .  A
C730        S734   1.809       .  S
C731        C736   1.399       .  A
C731        C740   1.392       .  A
S732        H748   1.406       .  S
S734        H745   1.406       .  S
C736        C737   1.399       .  A
C736        S741   1.806       .  S
C737        C738   1.422       .  A
C737        H742   1.081       .  S
C738        C739   1.445       .  A
C739        C740   1.400       .  A
C739        S743   1.818       .  S
C740        H744   1.083       .  S
S741        H746   1.407       .  S
S743        H747   1.407       .  S
C749        C750   1.397       .  A
C749        C754   1.409       .  A
C749        H759   1.082       .  S
C750        C755   1.494       .  S
C750        C751   1.407       .  A
C751        C752   1.402       .  A
C751        S756   1.806       .  S
C752        C753   1.420       .  A
C752        H757   1.077       .  S
C753        C754   1.443       .  A
C754        S758   1.815       .  S
C755        C760   1.412       .  A
C755        C764   1.403       .  A
S756        H772   1.405       .  S
S758        H769   1.406       .  S
C760        C761   1.407       .  A
C760        S765   1.807       .  S
C761        C762   1.409       .  A
C761        H766   1.082       .  S
C762        C763   1.419       .  A
C763        C764   1.404       .  A
C763        S767   1.802       .  S
C764        H768   1.084       .  S
S765        H770   1.407       .  S
S767        H771   1.405       .  S
C773        C774   1.404       .  A
C773        C778   1.413       .  A
C773        H783   1.083       .  S
C774        C779   1.494       .  S
C774        C775   1.411       .  A
C775        C776   1.403       .  A
C775        S780   1.804       .  S
C776        C777   1.410       .  A
C776        H781   1.084       .  S
C777        C778   1.423       .  A
C778        S782   1.809       .  S
C779        C784   1.404       .  A
C779        C788   1.393       .  A
S780        H796   1.405       .  S
S782        H793   1.407       .  S
C784        C785   1.410       .  A
C784        S789   1.805       .  S
C785        C786   1.424       .  A
C785        H790   1.082       .  S
C786        C787   1.447       .  A
C787        C788   1.408       .  A
C787        S791   1.813       .  S
C788        H792   1.083       .  S
S789        H794   1.407       .  S
S791        H795   1.407       .  S
C797        C798   1.402       .  A
C797        C802   1.403       .  A
C797        H807   1.083       .  S
C798        C803   1.483       .  S
C798        C799   1.413       .  A
C799        C800   1.400       .  A
C799        S804   1.805       .  S
C800        C801   1.404       .  A
C800        H805   1.084       .  S
C801        C802   1.414       .  A
C802        S806   1.807       .  S
C803        C808   1.403       .  A
C803        C812   1.393       .  A
S804        H820   1.406       .  S
S806        H817   1.406       .  S
C808        C809   1.404       .  A
C808        S813   1.807       .  S
C809        C810   1.420       .  A
C809        H814   1.076       .  S
C810        C811   1.438       .  A
C811        C812   1.400       .  A
C811        S815   1.810       .  S
C812        H816   1.083       .  S
S813        H818   1.407       .  S
S815        H819   1.407       .  S
C821        C822   1.403       .  A
C821        C826   1.408       .  A
C821        H831   1.084       .  S
C822        C827   1.502       .  S
C822        C823   1.415       .  A
C823        C824   1.410       .  A
C823        S828   1.802       .  S
C824        C825   1.410       .  A
C824        H829   1.083       .  S
C825        C826   1.424       .  A
C826        S830   1.802       .  S
C827        C832   1.405       .  A
C827        C836   1.400       .  A
S828        H844   1.406       .  S
S830        H841   1.408       .  S
C832        C833   1.410       .  A
C832        S837   1.807       .  S
C833        C834   1.425       .  A
C833        H838   1.076       .  S
C834        C835   1.436       .  A
C835        C836   1.414       .  A
C835        S839   1.809       .  S
C836        H840   1.082       .  S
S837        H842   1.407       .  S
S839        H843   1.406       .  S
C845        C846   1.400       .  A
C845        C850   1.410       .  A
C845        H855   1.083       .  S
C846        C851   1.492       .  S
C846        C847   1.407       .  A
C847        C848   1.398       .  A
C847        S852   1.806       .  S
C848        C849   1.421       .  A
C848        H853   1.081       .  S
C849        C850   1.437       .  A
C850        S854   1.810       .  S
C851        C856   1.411       .  A
C851        C860   1.401       .  A
S852        H868   1.406       .  S
S854        H865   1.407       .  S
C856        C857   1.407       .  A
C856        S861   1.807       .  S
C857        C858   1.409       .  A
C857        H862   1.082       .  S
C858        C859   1.422       .  A
C859        C860   1.405       .  A
C859        S863   1.810       .  S
C860        H864   1.083       .  S
S861        H866   1.407       .  S
S863        H867   1.407       .  S
C869        C870   1.399       .  A
C869        C874   1.396       .  A
C869        H879   1.083       .  S
C870        C875   1.473       .  S
C870        C871   1.411       .  A
C871        C872   1.402       .  A
C871        S876   1.803       .  S
C872        C873   1.404       .  A
C872        H877   1.084       .  S
C873        C874   1.414       .  A
C874        S878   1.811       .  S
C875        C880   1.400       .  A
C875        C884   1.392       .  A
S876        H892   1.405       .  S
S878        H889   1.407       .  S
C880        C881   1.401       .  A
C880        S885   1.807       .  S
C881        C882   1.423       .  A
C881        H886   1.075       .  S
C882        C883   1.437       .  A
C883        C884   1.399       .  A
C883        S887   1.807       .  S
C884        H888   1.083       .  S
S885        H890   1.407       .  S
S887        H891   1.407       .  S
