geometry optimzed in LAMMPS
_audit_creation_date              2020-11-30 
_audit_creation_method            'lammps2cif' 
_symmetry_space_group_name_H-M    'P1' 
_symmetry_Int_Tables_number       1 
_symmetry_cell_setting            triclinic 
loop_ 
_symmetry_equiv_pos_as_xyz 
  x,y,z 
_cell_length_a                    34.30902128 
_cell_length_b                    37.55336562128279 
_cell_length_c                    34.54522647688877 
_cell_angle_alpha                 89.70088602699326 
_cell_angle_beta                  90.05386538336496 
_cell_angle_gamma                 89.69183584480135 
loop_ 
_atom_site_label 
_atom_site_type_symbol 
_atom_site_fract_x 
_atom_site_fract_y 
_atom_site_fract_z 
_atom_site_charge 
N1          N  0.44368307  0.45934308  0.43567927    -0.05600
N2          N  0.43709172  0.43288206  0.41153036    -0.57700
N3          N  0.41526611  0.54222586  0.45621356    -0.05300
N4          N  0.38907742  0.56678569  0.44722056    -0.59900
N5          N  0.44296157  0.54117284  0.42992115    -0.04900
N6          N  0.43630009  0.56516372  0.40260893    -0.57700
N7          N  0.41623685  0.46078443  0.46222914    -0.04600
N8          N  0.39034471  0.43546388  0.45652376    -0.60200
C9          C  0.40375299  0.41820547  0.42490497     0.96600
C10         C  0.40285315  0.58115167  0.41401046     0.96300
N11         N  0.44220591  0.54946993  0.57411886    -0.05800
N12         N  0.43571214  0.57628850  0.59775021    -0.58300
N13         N  0.41564322  0.46600145  0.55358996    -0.03900
N14         N  0.39122077  0.43995331  0.56175410    -0.59600
N15         N  0.44271630  0.46790414  0.58038430    -0.05800
N16         N  0.43730079  0.44324986  0.60711286    -0.58600
N17         N  0.41512936  0.54818113  0.54719400    -0.03600
N18         N  0.38969758  0.57437446  0.55189266    -0.59600
Mn19       Mn  0.41424793  0.50426190  0.50485120     1.18400
C20         C  0.40328779  0.59194615  0.58322813     0.98600
C21         C  0.40507674  0.42575674  0.59522666     0.99300
N22         N  0.53525523  0.54144169  0.43094721    -0.05800
N23         N  0.54316309  0.56472385  0.40330803    -0.62200
N24         N  0.56261914  0.46109301  0.46296695    -0.04600
N25         N  0.58945740  0.43637224  0.45690535    -0.62800
N26         N  0.53546749  0.45965437  0.43612422    -0.05400
N27         N  0.54305722  0.43376595  0.41151352    -0.62400
N28         N  0.56194529  0.54275625  0.45826874    -0.04200
N29         N  0.58836921  0.56702976  0.44993927    -0.63100
Mn30       Mn  0.48932224  0.50039554  0.43204555     1.10700
C31         C  0.57620362  0.58060206  0.41568807     0.99900
C32         C  0.57646004  0.41911554  0.42513128     0.99900
N33         N  0.53385152  0.46823792  0.58134766    -0.05400
N34         N  0.54132345  0.44607662  0.61012848    -0.60700
N35         N  0.56129896  0.54710513  0.54903745    -0.04700
N36         N  0.58852463  0.57088861  0.55580391    -0.57500
N37         N  0.53387540  0.54904144  0.57547928    -0.06000
N38         N  0.54198600  0.57418133  0.60074176    -0.60300
N39         N  0.56106715  0.46607417  0.55465402    -0.05000
N40         N  0.58764817  0.44226148  0.56472203    -0.57500
Mn41       Mn  0.48797986  0.50879406  0.57881042     1.20200
Mn42       Mn  0.56275464  0.50415095  0.50617835     1.10100
Cl43       Cl  0.48857604  0.50439008  0.50542515    -0.85500
C44         C  0.57486143  0.43009317  0.59934125     0.96900
C45         C  0.57599215  0.58797184  0.58782670     0.96700
N46         N  0.94749145  0.46151558  0.93031976    -0.05600
N47         N  0.93777113  0.43653594  0.90539754    -0.57700
N48         N  0.92539626  0.54557511  0.95399810    -0.05300
N49         N  0.90030731  0.57147503  0.94639938    -0.59900
N50         N  0.95160662  0.54321496  0.92635290    -0.04900
N51         N  0.94512817  0.56769714  0.89949967    -0.57700
N52         N  0.92116536  0.46401204  0.95783764    -0.04600
N53         N  0.89304227  0.44069561  0.95233107    -0.60200
C54         C  0.90402066  0.42357545  0.91977225     0.96600
C55         C  0.91340500  0.58536255  0.91270032     0.96300
N56         N  0.95545715  0.54737281  0.07245776    -0.05800
N57         N  0.94831260  0.57141712  0.09931894    -0.58300
N58         N  0.92411568  0.46723413  0.04836689    -0.03900
N59         N  0.89557189  0.44537158  0.05698664    -0.59600
N60         N  0.95131682  0.46610398  0.07522283    -0.05800
N61         N  0.94142814  0.44342361  0.10289587    -0.58600
N62         N  0.92808809  0.54829071  0.04570356    -0.03600
N63         N  0.90184936  0.57296662  0.05388590    -0.59600
Mn64       Mn  0.92383087  0.50644469  0.00148307     1.18400
C65         C  0.91508544  0.58741749  0.08710300     0.98600
C66         C  0.90646073  0.43076508  0.09102718     0.99300
N67         N  0.04275018  0.53903738  0.92461012    -0.05800
N68         N  0.04927265  0.56373449  0.89817507    -0.62200
N69         N  0.06751344  0.45770529  0.95508644    -0.04600
N70         N  0.09226393  0.43122948  0.94962814    -0.62800
N71         N  0.03971898  0.45714847  0.92887142    -0.05400
N72         N  0.04515041  0.43019051  0.90498255    -0.62400
N73         N  0.07029493  0.53929601  0.95102111    -0.04200
N74         N  0.09614611  0.56405662  0.94294340    -0.63100
Mn75       Mn  0.99543876  0.50004996  0.92633135     1.10700
C76         C  0.08270526  0.57925742  0.90984532     0.99900
C77         C  0.07781560  0.41395340  0.91855519     0.99900
N78         N  0.04439093  0.46167946  0.07297385    -0.05400
N79         N  0.05179810  0.43605610  0.09845349    -0.60700
N80         N  0.07348625  0.54246458  0.04226576    -0.04700
N81         N  0.10019313  0.56725712  0.04717690    -0.57500
N82         N  0.04750451  0.54387791  0.07015239    -0.06000
N83         N  0.05605633  0.56976399  0.09440183    -0.60300
N84         N  0.07032081  0.46082537  0.04504436    -0.05000
N85         N  0.09547127  0.43477168  0.05079426    -0.57500
Mn86       Mn  0.99978525  0.50463022  0.07398919     1.20200
Mn87       Mn  0.07148756  0.50020747  0.99829165     1.10100
Cl88       Cl  0.99760689  0.50285347  0.00006524    -0.85500
C89         C  0.08386950  0.41926079  0.08409167     0.96900
C90         C  0.08905344  0.58436319  0.07978634     0.96700
C91         C  0.74585647  0.25696734  0.74993111    -0.02000
N92         N  0.55310591  0.04457456  0.93062893    -0.05600
N93         N  0.56363444  0.06947982  0.90568470    -0.57700
N94         N  0.57804556  0.96159204  0.95451789    -0.05300
N95         N  0.60438217  0.93663033  0.94804161    -0.59900
N96         N  0.55275555  0.96305917  0.92591932    -0.04900
N97         N  0.56161484  0.93908012  0.89942963    -0.57700
N98         N  0.57835176  0.04265597  0.95926604    -0.04600
N99         N  0.60649067  0.06597158  0.95439174    -0.60200
C100        C  0.59696108  0.08253824  0.92097995     0.96600
C101        C  0.59401384  0.92267637  0.91357904     0.96300
N102        N  0.54666682  0.95541751  0.07159027    -0.05800
N103        N  0.55566013  0.93075868  0.09776742    -0.58300
N104        N  0.57395733  0.03845801  0.05032217    -0.03900
N105        N  0.60013044  0.06234469  0.06045896    -0.59600
N106        N  0.54587838  0.03693294  0.07616995    -0.05800
N107        N  0.55244415  0.05958290  0.10449647    -0.58600
N108        N  0.57432630  0.95722259  0.04529070    -0.03600
N109        N  0.60232900  0.93408140  0.05282755    -0.59600
Mn110      Mn  0.57685139  0.00003358  0.00233595     1.18400
C111        C  0.59048531  0.91765204  0.08547444     0.98600
C112        C  0.58632614  0.07524296  0.09431389     0.99300
N113        N  0.46031197  0.96377214  0.92077850    -0.05800
N114        N  0.45420886  0.93985416  0.89348387    -0.62200
N115        N  0.43260378  0.04442627  0.95151872    -0.04600
N116        N  0.40692516  0.07009560  0.94550172    -0.62800
N117        N  0.46058634  0.04594029  0.92563981    -0.05400
N118        N  0.45418894  0.07273253  0.90138530    -0.62400
N119        N  0.43223882  0.96259491  0.94663436    -0.04200
N120        N  0.40661523  0.93794098  0.93738109    -0.63100
Mn121      Mn  0.50670413  0.00444308  0.92448247     1.10700
C122        C  0.42054043  0.92378710  0.90409469     0.99900
C123        C  0.42063572  0.08788558  0.91421447     0.99900
N124        N  0.45358020  0.03881771  0.07051064    -0.05400
N125        N  0.44564278  0.06431726  0.09572891    -0.60700
N126        N  0.42766737  0.95852608  0.03805033    -0.04700
N127        N  0.40018337  0.93448335  0.04304073    -0.57500
N128        N  0.45348843  0.95659758  0.06621754    -0.06000
N129        N  0.44422219  0.93098501  0.09077971    -0.60300
N130        N  0.42831822  0.03995973  0.04184319    -0.05000
N131        N  0.40290382  0.06596270  0.04697120    -0.57500
Mn132      Mn  0.49969121  0.99675042  0.07233086     1.20200
Mn133      Mn  0.42925900  0.00125611  0.99446698     1.10100
Cl134      Cl  0.50311422  0.00049404  0.99842127    -0.85500
C135        C  0.41373310  0.08097989  0.08070113     0.96900
C136        C  0.41131247  0.91715980  0.07560475     0.96700
C137        C  0.24069726  0.75624446  0.75231365    -0.02000
N138        N  0.94937284  0.04960805  0.56879345    -0.05600
N139        N  0.94074131  0.07349998  0.59526476    -0.57700
N140        N  0.92517083  0.96684249  0.54476898    -0.05300
N141        N  0.89869871  0.94307584  0.55462322    -0.59900
N142        N  0.95229722  0.96876217  0.57165198    -0.04900
N143        N  0.94512866  0.94623493  0.60010873    -0.57700
N144        N  0.92154764  0.04788998  0.54266852    -0.04600
N145        N  0.89328929  0.07066694  0.55102959    -0.60200
C146        C  0.90605234  0.08684701  0.58361037     0.96600
C147        C  0.91188709  0.93033042  0.58893245     0.96300
N148        N  0.95312829  0.96622019  0.42513815    -0.05800
N149        N  0.94660100  0.94223379  0.39817700    -0.58300
N150        N  0.92277391  0.04658002  0.45134643    -0.03900
N151        N  0.89494107  0.06986792  0.44370241    -0.59600
N152        N  0.94991744  0.04762023  0.42447458    -0.05800
N153        N  0.94073140  0.07170126  0.39789747    -0.58600
N154        N  0.92560443  0.96536509  0.45165299    -0.03600
N155        N  0.89955236  0.94088376  0.44283776    -0.59600
Mn156      Mn  0.92274364  0.00641478  0.49750616     1.18400
C157        C  0.91341004  0.92627822  0.40973199     0.98600
C158        C  0.90651926  0.08572993  0.41056576     0.99300
N159        N  0.04334722  0.97066643  0.57226411    -0.05800
N160        N  0.05117156  0.94811283  0.60057347    -0.62200
N161        N  0.06912627  0.05082620  0.54203645    -0.04600
N162        N  0.09566854  0.07525987  0.54876948    -0.62800
N163        N  0.04170314  0.05174435  0.56860005    -0.05400
N164        N  0.04914743  0.07677594  0.59419651    -0.62400
N165        N  0.07072692  0.96961563  0.54567188    -0.04200
N166        N  0.09797651  0.94625975  0.55543749    -0.63100
Mn167      Mn  0.99670134  0.01037583  0.57105791     1.10700
C168        C  0.08510882  0.93306565  0.58958686     0.99900
C169        C  0.08257635  0.09138367  0.58106271     0.99900
N170        N  0.04322425  0.04923634  0.42493016    -0.05400
N171        N  0.05090901  0.07401965  0.39877971    -0.60700
N172        N  0.07129999  0.96737846  0.45382505    -0.04700
N173        N  0.09772994  0.94236999  0.44767939    -0.57500
N174        N  0.04474762  0.96710965  0.42638037    -0.06000
N175        N  0.05259835  0.94170092  0.40122730    -0.60300
N176        N  0.07023165  0.04903201  0.45190939    -0.05000
N177        N  0.09656559  0.07363194  0.44473641    -0.57500
Mn178      Mn  0.99780079  0.00774777  0.42408003     1.20200
Mn179      Mn  0.07132335  0.00900381  0.49829668     1.10100
Cl180      Cl  0.99707374  0.00834600  0.49769734    -0.85500
C181        C  0.08420131  0.08938551  0.41167160     0.96900
C182        C  0.08570540  0.92618029  0.41490502     0.96700
C183        C  0.74878872  0.74808646  0.25884761    -0.02000
C184        C  0.25561950  0.25264597  0.24616399    -0.02000
C185        C  0.74002975  0.25913857  0.24814235    -0.02000
C186        C  0.24731346  0.75552214  0.24698653    -0.02000
C187        C  0.24568086  0.25115146  0.75088303    -0.02000
C188        C  0.75156650  0.75247518  0.74255677    -0.02000
C189        C  0.15508431  0.12994537  0.65116810    -0.11400
C190        C  0.14904733  0.16645238  0.64517423     0.11200
C191        C  0.12230594  0.17848265  0.61659365    -0.03200
C192        C  0.10075181  0.15300551  0.59614165    -0.05900
C193        C  0.10592639  0.11658955  0.60322721    -0.16700
C194        C  0.13379177  0.10459206  0.63054351     0.02200
C195        C  0.17089945  0.19113963  0.67012052     0.12200
C196        C  0.11651745  0.21783491  0.60783747     0.62800
H197        H  0.07971624  0.16123549  0.57442034     0.12200
C198        C  0.14089069  0.06518758  0.63766937     0.54900
H199        H  0.17636007  0.12154964  0.67259426     0.08000
C200        C  0.15939259  0.19799935  0.70834654    -0.05800
C201        C  0.18403491  0.21841194  0.73170254    -0.06500
C202        C  0.21954334  0.23371654  0.71839977    -0.16100
C203        C  0.22523232  0.23264079  0.67662997    -0.01700
C204        C  0.20394813  0.20752111  0.65524341    -0.09300
C205        C  0.12244660  0.18197499  0.72523604     0.65000
H206        H  0.17597305  0.22090733  0.76168744     0.10500
C207        C  0.24719592  0.25858886  0.65030793     0.63400
H208        H  0.21132398  0.20267628  0.62517793     0.07800
F209        F  0.10676257  0.04925206  0.64984280    -0.19600
F210        F  0.16904878  0.05924767  0.66574248    -0.15900
F211        F  0.15333609  0.04934799  0.60378555    -0.19400
F212        F  0.15087470  0.23224215  0.59424247    -0.22700
F213        F  0.10531900  0.23561648  0.64097147    -0.24200
F214        F  0.08813572  0.22346628  0.57991267    -0.18200
F215        F  0.28179491  0.24349706  0.63798999    -0.20700
F216        F  0.25394289  0.29108537  0.66651827    -0.21900
F217        F  0.22508882  0.26600892  0.61759009    -0.19000
F218        F  0.11399760  0.19559402  0.76145155    -0.19100
F219        F  0.12682971  0.14549916  0.72881566    -0.23000
F220        F  0.09100714  0.18925264  0.70136091    -0.24600
C221        C  0.16105368  0.15711222  0.37896530    -0.11400
C222        C  0.15070037  0.16145519  0.34001608     0.11200
C223        C  0.11733826  0.14413008  0.32539571    -0.03200
C224        C  0.09607594  0.12178034  0.35022897    -0.05900
C225        C  0.10692659  0.11620031  0.38909217    -0.16700
C226        C  0.13944185  0.13521003  0.40419803     0.02200
C227        C  0.17529788  0.18458861  0.31523361     0.12200
C228        C  0.10468577  0.14848926  0.28347105     0.62800
H229        H  0.07128756  0.10755245  0.33880348     0.12200
C230        C  0.15141243  0.13327881  0.44655877     0.54900
H231        H  0.18646917  0.17114853  0.38936008     0.08000
C232        C  0.17292747  0.22201729  0.31551741    -0.05800
C233        C  0.19810060  0.24134148  0.29146032    -0.06500
C234        C  0.22610051  0.22554204  0.26643368    -0.16100
C235        C  0.22219381  0.18725257  0.26153328    -0.01700
C236        C  0.20054103  0.16805853  0.28928810    -0.09300
C237        C  0.14498213  0.24337184  0.34057404     0.65000
H238        H  0.19609470  0.26984422  0.29309314     0.10500
C239        C  0.23550653  0.16368637  0.22789834     0.63400
H240        H  0.20097074  0.13915473  0.28887649     0.07800
F241        F  0.11952434  0.14014604  0.46990339    -0.19600
F242        F  0.17972483  0.15810673  0.45540917    -0.15900
F243        F  0.16653676  0.09994418  0.45505693    -0.19400
F244        F  0.13062020  0.13080248  0.25967496    -0.22700
F245        F  0.10363771  0.18415280  0.27331016    -0.24200
F246        F  0.06789849  0.13467328  0.27718056    -0.18200
F247        F  0.26848167  0.14472377  0.23846247    -0.20700
F248        F  0.24176586  0.18146397  0.19378723    -0.21900
F249        F  0.20675745  0.13914454  0.21931832    -0.19000
F250        F  0.12272472  0.26547581  0.31711523    -0.19100
F251        F  0.16626126  0.26413908  0.36581728    -0.23000
F252        F  0.11976951  0.22265128  0.36206104    -0.24600
C253        C  0.79736614  0.81144876  0.65839243    -0.11400
C254        C  0.82439170  0.83057017  0.67982572     0.11200
C255        C  0.82877676  0.82373036  0.71949435    -0.03200
C256        C  0.80516688  0.79772881  0.73646833    -0.05900
C257        C  0.77730526  0.77706964  0.71554686    -0.16700
C258        C  0.77660748  0.78235163  0.67372357     0.02200
C259        C  0.84920809  0.85614065  0.65870532     0.12200
C260        C  0.85747880  0.84450002  0.74410656     0.62800
H261        H  0.80701307  0.79463202  0.76751066     0.12200
C262        C  0.75803379  0.76033548  0.64121676     0.54900
H263        H  0.79487587  0.81786635  0.62779211     0.08000
C264        C  0.88050204  0.84440101  0.63513896    -0.05800
C265        C  0.90043890  0.86963692  0.61266533    -0.06500
C266        C  0.89020338  0.90568322  0.61368711    -0.16100
C267        C  0.86047443  0.91774132  0.63880111    -0.01700
C268        C  0.83968466  0.89243529  0.66044129    -0.09300
C269        C  0.89266306  0.80544505  0.63361243     0.65000
H270        H  0.92394879  0.86141014  0.59374278     0.10500
C271        C  0.85130646  0.95713852  0.64290999     0.63400
H272        H  0.81560878  0.90068609  0.67862598     0.07800
F273        F  0.78510691  0.75555299  0.61190851    -0.19600
F274        F  0.72669696  0.77880929  0.62570521    -0.15900
F275        F  0.74628977  0.72677131  0.65064273    -0.19400
F276        F  0.84661077  0.87997486  0.74499171    -0.22700
F277        F  0.89457239  0.84172688  0.72880229    -0.24200
F278        F  0.85884791  0.83203365  0.78188490    -0.18200
F279        F  0.82244623  0.96325424  0.67010518    -0.20700
F280        F  0.83883497  0.97090048  0.60780433    -0.21900
F281        F  0.88441895  0.97502718  0.65456441    -0.19000
F282        F  0.92615028  0.80060521  0.61190809    -0.19100
F283        F  0.86343400  0.78546561  0.61706199    -0.23000
F284        F  0.89996752  0.79279554  0.67057059    -0.24600
C285        C  0.16896832  0.79187100  0.32167585    -0.11400
C286        C  0.17628814  0.82828313  0.32081963     0.11200
C287        C  0.20570969  0.84156543  0.29661169    -0.03200
C288        C  0.22471778  0.81801207  0.27129412    -0.05900
C289        C  0.22005453  0.78033544  0.27278537    -0.16700
C290        C  0.18978348  0.76724270  0.29866624     0.02200
C291        C  0.15177899  0.85197671  0.34522319     0.12200
C292        C  0.21851153  0.88024761  0.29914763     0.62800
H293        H  0.24425010  0.82987984  0.25082079     0.12200
C294        C  0.17534410  0.72867960  0.30107137     0.54900
H295        H  0.14553863  0.78310399  0.34034933     0.08000
C296        C  0.11691195  0.86754314  0.33111848    -0.05800
C297        C  0.09611029  0.89093667  0.35523511    -0.06500
C298        C  0.10829009  0.89848991  0.39326166    -0.16100
C299        C  0.14156639  0.88018135  0.40841605    -0.01700
C300        C  0.16296488  0.85758854  0.38369148    -0.09300
C301        C  0.10146118  0.85910847  0.29092759     0.65000
H302        H  0.07015946  0.90389211  0.34408903     0.10500
C303        C  0.15458728  0.88361380  0.45031225     0.63400
H304        H  0.18903664  0.84421411  0.39405517     0.07800
F305        F  0.15348072  0.72087709  0.26868496    -0.19600
F306        F  0.15142621  0.72320985  0.33281630    -0.15900
F307        F  0.20527543  0.70445353  0.30486642    -0.19400
F308        F  0.23206568  0.88687937  0.33611760    -0.22700
F309        F  0.18773303  0.90302599  0.29134752    -0.24200
F310        F  0.24822496  0.88797413  0.27339620    -0.18200
F311        F  0.18380651  0.85944466  0.45960774    -0.20700
F312        F  0.12352194  0.87709742  0.47482348    -0.21900
F313        F  0.16897247  0.91738337  0.45676529    -0.19000
F314        F  0.06637163  0.87620968  0.28348769    -0.19100
F315        F  0.09547041  0.82287948  0.28770911    -0.23000
F316        F  0.12779496  0.86969126  0.26298891    -0.24600
C317        C  0.88648318  0.84635583  0.34762108    -0.11400
C318        C  0.84629003  0.85201469  0.34292319     0.11200
C319        C  0.82847001  0.88240800  0.35950133    -0.03200
C320        C  0.85151384  0.90573611  0.38136192    -0.05900
C321        C  0.89173017  0.90024142  0.38602258    -0.16700
C322        C  0.90991379  0.87058027  0.36807232     0.02200
C323        C  0.82299491  0.82474928  0.32226123     0.12200
C324        C  0.78525967  0.89011773  0.35417270     0.62800
H325        H  0.83824957  0.92878935  0.39482041     0.12200
C326        C  0.95359193  0.86412966  0.37095881     0.54900
H327        H  0.89934352  0.82273374  0.33497329     0.08000
C328        C  0.82242346  0.82209291  0.28179619    -0.05800
C329        C  0.79906671  0.79588711  0.26489520    -0.06500
C330        C  0.77426647  0.77246624  0.28614408    -0.16100
C331        C  0.77521622  0.77592508  0.32826995    -0.01700
C332        C  0.80088628  0.80127461  0.34444182    -0.09300
C333        C  0.84654465  0.84677480  0.25638214     0.65000
H334        H  0.80041868  0.79331159  0.23380935     0.10500
C335        C  0.75383324  0.75338747  0.35869846     0.63400
H336        H  0.80415739  0.80345365  0.37552169     0.07800
F337        F  0.97322552  0.89058019  0.35109012    -0.19600
F338        F  0.96438589  0.83175386  0.35513173    -0.15900
F339        F  0.96508852  0.86414578  0.40934973    -0.19400
F340        F  0.76354898  0.86454800  0.37315161    -0.22700
F341        F  0.77585210  0.88993731  0.31524738    -0.24200
F342        F  0.77488813  0.92306436  0.36883358    -0.18200
F343        F  0.75325006  0.76984348  0.39451612    -0.20700
F344        F  0.77279623  0.72124297  0.36397012    -0.21900
F345        F  0.71546324  0.74793172  0.34982680    -0.19000
F346        F  0.83991445  0.84112239  0.21735135    -0.19100
F347        F  0.88577300  0.84123535  0.26339180    -0.23000
F348        F  0.83728793  0.88186131  0.26427783    -0.24600
C349        C  0.83261138  0.15748892  0.38101660    -0.11400
C350        C  0.83580263  0.15633642  0.34063254     0.11200
C351        C  0.86330946  0.13305649  0.32338050    -0.03200
C352        C  0.88626185  0.11114028  0.34750544    -0.05900
C353        C  0.88209748  0.11120889  0.38795542    -0.16700
C354        C  0.85452005  0.13470989  0.40518750     0.02200
C355        C  0.81200837  0.18205593  0.31762052     0.12200
C356        C  0.86796911  0.13076416  0.27972878     0.62800
H357        H  0.90723382  0.09307198  0.33471832     0.12200
C358        C  0.84801674  0.13626843  0.44868514     0.54900
H359        H  0.81233163  0.17642392  0.39345325     0.08000
C360        C  0.77159890  0.17871477  0.31287369    -0.05800
C361        C  0.75134775  0.20561607  0.29277274    -0.06500
C362        C  0.76948821  0.23554031  0.27431192    -0.16100
C363        C  0.81119951  0.23911397  0.28180536    -0.01700
C364        C  0.83052591  0.21214651  0.30333990    -0.09300
C365        C  0.74988205  0.14644261  0.32832277     0.65000
H366        H  0.72003328  0.20325638  0.29131185     0.10500
C367        C  0.83723250  0.27052115  0.27124493     0.63400
H368        H  0.86118848  0.21419284  0.31028095     0.07800
F369        F  0.83070079  0.10512425  0.46126466    -0.19600
F370        F  0.82372288  0.16422549  0.45895227    -0.15900
F371        F  0.88317987  0.14085975  0.46758347    -0.19400
F372        F  0.88073690  0.16290671  0.26496350    -0.22700
F373        F  0.83263537  0.12229342  0.26307056    -0.24200
F374        F  0.89473929  0.10485325  0.26919414    -0.18200
F375        F  0.82541581  0.30028322  0.29135437    -0.20700
F376        F  0.83759966  0.27614108  0.23198010    -0.21900
F377        F  0.87595087  0.26517631  0.28130791    -0.19000
F378        F  0.71124155  0.14635958  0.31671925    -0.19100
F379        F  0.75067534  0.14616655  0.36830354    -0.23000
F380        F  0.76720201  0.11559836  0.31478549    -0.24600
C381        C  0.14763111  0.89438082  0.66969366    -0.11400
C382        C  0.14742923  0.85829213  0.65979715     0.11200
C383        C  0.12576000  0.84656366  0.62736322    -0.03200
C384        C  0.10646397  0.87209257  0.60442480    -0.05900
C385        C  0.10719355  0.90818594  0.61402193    -0.16700
C386        C  0.12753863  0.91975329  0.64726927     0.02200
C387        C  0.17054374  0.83329670  0.68377473     0.12200
C388        C  0.12245861  0.80731822  0.61748932     0.62800
H389        H  0.08992439  0.86404796  0.57924087     0.12200
C390        C  0.12860696  0.95876590  0.65837376     0.54900
H391        H  0.16388851  0.90244656  0.69504698     0.08000
C392        C  0.21054154  0.82809441  0.67765855    -0.05800
C393        C  0.23012781  0.80292091  0.70056203    -0.06500
C394        C  0.21139318  0.78080788  0.72860074    -0.16100
C395        C  0.16906352  0.78424740  0.73086078    -0.01700
C396        C  0.15118481  0.81312544  0.71148933    -0.09300
C397        C  0.23268433  0.84972926  0.64760738     0.65000
H398        H  0.26138303  0.80133609  0.69751308     0.10500
C399        C  0.13873367  0.75897626  0.74838838     0.63400
H400        H  0.12024159  0.81817712  0.71529407     0.07800
F401        F  0.15140104  0.96447182  0.69083098    -0.19600
F402        F  0.09132644  0.97079177  0.66632653    -0.15900
F403        F  0.14391552  0.97839384  0.62810934    -0.19400
F404        F  0.10323333  0.78964313  0.64693302    -0.22700
F405        F  0.15909360  0.79247124  0.61287485    -0.24200
F406        F  0.10174248  0.80210888  0.58359577    -0.18200
F407        F  0.12482634  0.77262661  0.78280757    -0.20700
F408        F  0.15126461  0.72483337  0.75407677    -0.21900
F409        F  0.10726802  0.75592847  0.72341815    -0.19000
F410        F  0.27117253  0.83885842  0.64449057    -0.19100
F411        F  0.23226949  0.88527711  0.65777643    -0.23000
F412        F  0.21549204  0.84605892  0.61164136    -0.24600
C413        C  0.63776814  0.12151605  0.17754011    -0.11400
C414        C  0.64889438  0.15344105  0.15968264     0.11200
C415        C  0.63995905  0.15947782  0.12015523    -0.03200
C416        C  0.61936841  0.13317989  0.09985330    -0.05900
C417        C  0.60709658  0.10171431  0.11805984    -0.16700
C418        C  0.61645854  0.09554944  0.15754931     0.02200
C419        C  0.67122913  0.17945043  0.18293903     0.12200
C420        C  0.65206995  0.19352579  0.09963930     0.62800
H421        H  0.61236163  0.13708961  0.06954035     0.12200
C422        C  0.60514324  0.06137302  0.17827014     0.54900
H423        H  0.64588163  0.11724292  0.20752137     0.08000
C424        C  0.65320279  0.20207136  0.20989016    -0.05800
C425        C  0.67649215  0.22572599  0.23098147    -0.06500
C426        C  0.71719389  0.22992614  0.22449673    -0.16100
C427        C  0.73548370  0.20328019  0.20012397    -0.01700
C428        C  0.71169531  0.17915628  0.17988938    -0.09300
C429        C  0.60943055  0.20088716  0.21677734     0.65000
H430        H  0.66201779  0.24085163  0.25309190     0.10500
C431        C  0.77918595  0.19552101  0.19731601     0.63400
H432        H  0.72471303  0.15900520  0.16156669     0.07800
F433        F  0.62073385  0.05947042  0.21522036    -0.19600
F434        F  0.61865137  0.03229218  0.15775322    -0.15900
F435        F  0.56505779  0.05958325  0.18155000    -0.19400
F436        F  0.69223180  0.19608494  0.09930589    -0.22700
F437        F  0.63659626  0.22267635  0.11859559    -0.24200
F438        F  0.63916387  0.19454899  0.06165738    -0.18200
F439        F  0.78857642  0.18009384  0.16216536    -0.20700
F440        F  0.78959985  0.17179247  0.22613444    -0.21900
F441        F  0.80178804  0.22529692  0.20027349    -0.19000
F442        F  0.59710441  0.22717279  0.24199156    -0.19100
F443        F  0.59936843  0.16831271  0.23252599    -0.23000
F444        F  0.58973388  0.20570013  0.18219726    -0.24600
C445        C  0.33507772  0.18557936  0.20749265    -0.11400
C446        C  0.33295324  0.19090346  0.16762469     0.11200
C447        C  0.30944699  0.21876159  0.15294067    -0.03200
C448        C  0.28676037  0.23889269  0.17895039    -0.05900
C449        C  0.28594551  0.23228662  0.21967208    -0.16700
C450        C  0.31422696  0.20665090  0.23419998     0.02200
C451        C  0.35462360  0.16546740  0.14236563     0.12200
C452        C  0.30793668  0.22706858  0.10981383     0.62800
H453        H  0.26943118  0.25993422  0.16662434     0.12200
C454        C  0.32496004  0.20095545  0.27688521     0.54900
H455        H  0.35364865  0.16406227  0.21752831     0.08000
C456        C  0.39591377  0.16399690  0.14093575    -0.05800
C457        C  0.41400956  0.13599678  0.12048373    -0.06500
C458        C  0.39228889  0.11076508  0.09982051    -0.16100
C459        C  0.35091117  0.11399919  0.09899806    -0.01700
C460        C  0.33295605  0.14040159  0.12173453    -0.09300
C461        C  0.42078697  0.19196903  0.16061142     0.65000
H462        H  0.44549094  0.13369315  0.12037372     0.10500
C463        C  0.32537929  0.08971348  0.07483179     0.63400
H464        H  0.30149931  0.14160456  0.12388867     0.07800
F465        F  0.34513376  0.23009276  0.29034025    -0.19600
F466        F  0.34925450  0.17177897  0.28232660    -0.15900
F467        F  0.29269060  0.19489241  0.29950077    -0.19400
F468        F  0.28949872  0.19986333  0.09037697    -0.22700
F469        F  0.34531142  0.23079907  0.09548076    -0.24200
F470        F  0.28774326  0.25832323  0.10204033    -0.18200
F471        F  0.33231418  0.05450759  0.08469514    -0.20700
F472        F  0.33326082  0.09502273  0.03596808    -0.21900
F473        F  0.28607057  0.09654468  0.08031275    -0.19000
F474        F  0.45952756  0.18922458  0.14979403    -0.19100
F475        F  0.41883472  0.18806555  0.20033928    -0.23000
F476        F  0.40775277  0.22566580  0.15047798    -0.24600
C477        C  0.37600450  0.83268826  0.12403775    -0.11400
C478        C  0.34105670  0.84473340  0.14060369     0.11200
C479        C  0.32821924  0.88014992  0.13414844    -0.03200
C480        C  0.35143378  0.90275819  0.11139445    -0.05900
C481        C  0.38695350  0.89100049  0.09589269    -0.16700
C482        C  0.39918722  0.85536907  0.10132922     0.02200
C483        C  0.31943156  0.82028900  0.16642795     0.12200
C484        C  0.29071978  0.89409643  0.15208160     0.62800
H485        H  0.34273661  0.93021210  0.10664485     0.12200
C486        C  0.43622763  0.84151622  0.08263930     0.54900
H487        H  0.38525647  0.80551887  0.12961304     0.08000
C488        C  0.29373992  0.79462720  0.15213639    -0.05800
C489        C  0.27263274  0.77405267  0.17869473    -0.06500
C490        C  0.27579882  0.77764862  0.21971445    -0.16100
C491        C  0.30694086  0.80064235  0.23326136    -0.01700
C492        C  0.32633771  0.82240400  0.20606697    -0.09300
C493        C  0.28910096  0.78859196  0.10882024     0.65000
H494        H  0.25400284  0.75436852  0.16630678     0.10500
C495        C  0.32334447  0.80159907  0.27464632     0.63400
H496        H  0.34841449  0.84105171  0.21523692     0.07800
F497        F  0.43488653  0.84789318  0.04316611    -0.19600
F498        F  0.44096719  0.80524594  0.08840295    -0.15900
F499        F  0.46818261  0.85860901  0.09814942    -0.19400
F500        F  0.29397219  0.89385594  0.19197014    -0.22700
F501        F  0.25973175  0.87288500  0.14145134    -0.24200
F502        F  0.28248579  0.92861668  0.14030092    -0.18200
F503        F  0.34296774  0.77024955  0.28268590    -0.20700
F504        F  0.29495135  0.80719720  0.30200183    -0.21900
F505        F  0.35010267  0.82871815  0.27947517    -0.19000
F506        F  0.26064170  0.76371686  0.10064901    -0.19100
F507        F  0.32390886  0.77633670  0.09364423    -0.23000
F508        F  0.27886327  0.82005280  0.09042744    -0.24600
C509        C  0.67679190  0.78422518  0.82317150    -0.11400
C510        C  0.67917476  0.82117672  0.81978048     0.11200
C511        C  0.70405832  0.83628871  0.79202118    -0.03200
C512        C  0.72590881  0.81363293  0.76828487    -0.05900
C513        C  0.72471090  0.77570160  0.77057813    -0.16700
C514        C  0.69788569  0.76080642  0.79888111     0.02200
C515        C  0.65537659  0.84387452  0.84585037     0.12200
C516        C  0.70725017  0.87656564  0.78707244     0.62800
H517        H  0.74249980  0.82671226  0.74623616     0.12200
C518        C  0.68709728  0.72130899  0.80261390     0.54900
H519        H  0.65673494  0.77390133  0.84458872     0.08000
C520        C  0.61593745  0.85235157  0.83801051    -0.05800
C521        C  0.59694547  0.87743330  0.86163606    -0.06500
C522        C  0.61609460  0.89439965  0.89248638    -0.16100
C523        C  0.65554771  0.88485096  0.90087172    -0.01700
C524        C  0.67399716  0.85908231  0.87770054    -0.09300
C525        C  0.59422339  0.83539492  0.80452811     0.65000
H526        H  0.56685950  0.88436492  0.85569023     0.10500
C527        C  0.67918065  0.90240256  0.93271364     0.63400
H528        H  0.70401653  0.85150773  0.88316872     0.07800
F529        F  0.66121906  0.71241155  0.77365944    -0.19600
F530        F  0.66893382  0.71413533  0.83756669    -0.15900
F531        F  0.71883201  0.69887962  0.80110537    -0.19400
F532        F  0.72243974  0.89139112  0.82031083    -0.22700
F533        F  0.67088610  0.89121589  0.77996133    -0.24200
F534        F  0.73132063  0.88599185  0.75658006    -0.18200
F535        F  0.66298069  0.89478606  0.96842372    -0.20700
F536        F  0.68001076  0.93885653  0.92678872    -0.21900
F537        F  0.71742928  0.89042054  0.93343423    -0.19000
F538        F  0.55626346  0.84784186  0.80164619    -0.19100
F539        F  0.59292561  0.79890761  0.80973936    -0.23000
F540        F  0.61288315  0.84291347  0.77004210    -0.24600
C541        C  0.38585698  0.16058497  0.84307021    -0.11400
C542        C  0.34704105  0.16467175  0.85492670     0.11200
C543        C  0.33349355  0.14574486  0.88768207    -0.03200
C544        C  0.35937400  0.12262993  0.90707554    -0.05900
C545        C  0.39785410  0.11673321  0.89415835    -0.16700
C546        C  0.41180188  0.13704393  0.86213038     0.02200
C547        C  0.32025938  0.18608145  0.83005377     0.12200
C548        C  0.29132852  0.14850797  0.90103525     0.62800
H549        H  0.34875897  0.10756784  0.93163327     0.12200
C550        C  0.45336272  0.13394927  0.84736412     0.54900
H551        H  0.39522974  0.17515950  0.81762282     0.08000
C552        C  0.31784709  0.22330869  0.83199567    -0.05800
C553        C  0.29219209  0.24113697  0.80678364    -0.06500
C554        C  0.26822322  0.22378498  0.77874721    -0.16100
C555        C  0.26888537  0.18497783  0.77985482    -0.01700
C556        C  0.29665004  0.16786006  0.80407337    -0.09300
C557        C  0.34286812  0.24426551  0.86010890     0.65000
H558        H  0.29080574  0.26982373  0.80869488     0.10500
C559        C  0.23993259  0.15962331  0.76069428     0.63400
H560        H  0.29967404  0.13916030  0.80429225     0.07800
F561        F  0.47932661  0.13899083  0.87748322    -0.19600
F562        F  0.46138261  0.15921957  0.81917679    -0.15900
F563        F  0.45923337  0.10075118  0.83119786    -0.19400
F564        F  0.26711057  0.13336058  0.87378273    -0.22700
F565        F  0.28074752  0.18375091  0.90590280    -0.24200
F566        F  0.28544959  0.13104331  0.93593034    -0.18200
F567        F  0.23830669  0.16404495  0.72122368    -0.20700
F568        F  0.20372233  0.16404501  0.77732385    -0.21900
F569        F  0.24963203  0.12411862  0.76643511    -0.19000
F570        F  0.33507358  0.28045489  0.85829303    -0.19100
F571        F  0.38182604  0.23918613  0.85151792    -0.23000
F572        F  0.33604386  0.23295561  0.89760889    -0.24600
C573        C  0.67642956  0.87604291  0.13956835    -0.11400
C574        C  0.66105895  0.84298748  0.15042254     0.11200
C575        C  0.62212776  0.83458392  0.14021436    -0.03200
C576        C  0.59993038  0.85968708  0.11901231    -0.05900
C577        C  0.61552241  0.89255076  0.10773089    -0.16700
C578        C  0.65447535  0.90103192  0.11812140     0.02200
C579        C  0.68483827  0.81994274  0.17675057     0.12200
C580        C  0.60393973  0.79951173  0.15223101     0.62800
H581        H  0.57010660  0.85386316  0.11103445     0.12200
C582        C  0.67246630  0.93681866  0.10805125     0.54900
H583        H  0.70579936  0.88231657  0.14870084     0.08000
C584        C  0.71579111  0.79834618  0.16388241    -0.05800
C585        C  0.73697713  0.77817814  0.19135197    -0.06500
C586        C  0.72699876  0.77644473  0.23150891    -0.07300
C587        C  0.69915219  0.80315440  0.24432630    -0.01700
C588        C  0.67825705  0.82309676  0.21630977    -0.09300
C589        C  0.72624973  0.79640905  0.12118386     0.65000
H590        H  0.76205015  0.76398221  0.18075634     0.10500
C591        C  0.69100866  0.81315273  0.28637073     0.63400
H592        H  0.65617139  0.84216067  0.22491090     0.07800
F593        F  0.67815148  0.93933752  0.06852633    -0.19600
F594        F  0.70825696  0.94136567  0.12585612    -0.15900
F595        F  0.64815121  0.96411768  0.12003116    -0.19400
F596        F  0.60171030  0.79764759  0.19206130    -0.22700
F597        F  0.62630096  0.77144834  0.13884391    -0.24200
F598        F  0.56660638  0.79583453  0.13760392    -0.18200
F599        F  0.72393299  0.82687315  0.30332319    -0.20700
F600        F  0.67768538  0.78449246  0.30694095    -0.21900
F601        F  0.66254553  0.83926234  0.28968546    -0.19000
F602        F  0.75614695  0.77235905  0.11428650    -0.19100
F603        F  0.73807463  0.82945711  0.10808939    -0.23000
F604        F  0.69416906  0.78578797  0.10004091    -0.24600
C605        C  0.32779641  0.78782220  0.81976877    -0.11400
C606        C  0.32250617  0.82463354  0.82012820     0.11200
C607        C  0.29068446  0.83967101  0.80008680    -0.03200
C608        C  0.26606993  0.81725143  0.77876051    -0.05900
C609        C  0.26992851  0.77939326  0.77800499    -0.16700
C610        C  0.30126235  0.76449043  0.80157530     0.02200
C611        C  0.35020112  0.84693900  0.84276496     0.12200
C612        C  0.28216603  0.87947180  0.80200641     0.62800
H613        H  0.24219827  0.83016574  0.76426490     0.12200
C614        C  0.30655732  0.72489814  0.81143458     0.54900
H615        H  0.35241700  0.77747520  0.83596318     0.08000
C616        C  0.34714767  0.85087673  0.88337200    -0.05800
C617        C  0.37145655  0.87557418  0.90199889    -0.06500
C618        C  0.39939845  0.89572400  0.88175219    -0.16100
C619        C  0.40437883  0.88958230  0.84135669    -0.01700
C620        C  0.37943770  0.86527154  0.82270385    -0.09300
C621        C  0.31829197  0.82918455  0.90696220     0.65000
H622        H  0.36858456  0.87944084  0.93289442     0.10500
C623        C  0.43488880  0.90889189  0.81744630     0.63400
H624        H  0.38184416  0.86088294  0.79183653     0.07800
F625        F  0.27727897  0.71410438  0.83616840    -0.19600
F626        F  0.34140615  0.71815997  0.83044396    -0.15900
F627        F  0.30697006  0.70384363  0.77901267    -0.19400
F628        F  0.31250691  0.89830555  0.78563710    -0.22700
F629        F  0.27782379  0.88971359  0.84015412    -0.24200
F630        F  0.24830155  0.88873857  0.78248658    -0.18200
F631        F  0.43371675  0.89916831  0.77884859    -0.20700
F632        F  0.47169769  0.90068365  0.83133416    -0.21900
F633        F  0.42860777  0.94525691  0.81921643    -0.19000
F634        F  0.31897026  0.83824519  0.94575580    -0.19100
F635        F  0.32742113  0.79339475  0.90425913    -0.23000
F636        F  0.28087246  0.83475618  0.89333822    -0.24600
C637        C  0.79075010  0.20693090  0.65828657    -0.11400
C638        C  0.81380174  0.18205127  0.67766223     0.11200
C639        C  0.81749800  0.18376742  0.71803120    -0.03200
C640        C  0.79626194  0.20983805  0.73794915    -0.05900
C641        C  0.77052463  0.23470615  0.71974574    -0.16700
C642        C  0.76873322  0.23350238  0.67739358     0.02200
C643        C  0.83664884  0.15668576  0.65387837     0.12200
C644        C  0.84417357  0.15833358  0.74007635     0.62800
H645        H  0.79988986  0.21104918  0.76899326     0.12200
C646        C  0.74852202  0.25982075  0.64955018     0.54900
H647        H  0.79125026  0.20538965  0.62701389     0.08000
C648        C  0.81978809  0.12615722  0.63689884    -0.05800
C649        C  0.84323560  0.10449615  0.61315713    -0.06500
C650        C  0.88274684  0.11217564  0.60678512    -0.16100
C651        C  0.89934092  0.14297411  0.62355064    -0.01700
C652        C  0.87558600  0.16510367  0.64624439    -0.09300
C653        C  0.77750988  0.11632209  0.64426868     0.65000
H654        H  0.83112839  0.08082428  0.60013144     0.10500
C655        C  0.94172159  0.15288657  0.61718779     0.63400
H656        H  0.88733967  0.18917396  0.65873333     0.07800
F657        F  0.74847240  0.24794959  0.61163204    -0.19600
F658        F  0.76831758  0.29167238  0.64900395    -0.15900
F659        F  0.70999771  0.26509764  0.65824704    -0.19400
F660        F  0.88252508  0.16474239  0.73017925    -0.22700
F661        F  0.83511219  0.12351732  0.73110018    -0.24200
F662        F  0.84070733  0.16222562  0.77975789    -0.18200
F663        F  0.94994117  0.18650774  0.63116913    -0.20700
F664        F  0.95019508  0.15266227  0.57804850    -0.21900
F665        F  0.96567649  0.12884561  0.63628741    -0.19000
F666        F  0.76751638  0.08480732  0.62625236    -0.19100
F667        F  0.75309040  0.14281674  0.63030798    -0.23000
F668        F  0.77131739  0.11211665  0.68355863    -0.24600
C669        C  0.68277417  0.12662300  0.87110551    -0.11400
C670        C  0.66457126  0.15679377  0.85518383     0.11200
C671        C  0.62453035  0.16328194  0.86251346    -0.03200
C672        C  0.60374086  0.13856983  0.88487740    -0.05900
C673        C  0.62195767  0.10853206  0.90096106    -0.16700
C674        C  0.66244401  0.10274527  0.89502775     0.02200
C675        C  0.68766159  0.18001721  0.82911406     0.12200
C676        C  0.60359289  0.19577696  0.84634893     0.62800
H677        H  0.57279459  0.14232606  0.88972086     0.12200
C678        C  0.68403035  0.07122526  0.91285595     0.54900
H679        H  0.71310710  0.12176343  0.86422002     0.08000
C680        C  0.71723431  0.20249868  0.84266024    -0.05800
C681        C  0.73719591  0.22373730  0.81577130    -0.06500
C682        C  0.72616929  0.22681592  0.77599528    -0.16100
C683        C  0.69976111  0.19965235  0.76223806    -0.01700
C684        C  0.68093434  0.17756007  0.78949647    -0.09300
C685        C  0.72745980  0.20456378  0.88546025     0.65000
H686        H  0.76213516  0.23773246  0.82665943     0.10500
C687        C  0.69191796  0.19093612  0.71987437     0.63400
H688        H  0.66049837  0.15745705  0.78021895     0.07800
F689        F  0.68408107  0.07426028  0.95273435    -0.19600
F690        F  0.72248461  0.06955007  0.90082564    -0.15900
F691        F  0.66618334  0.03975647  0.90241559    -0.19400
F692        F  0.60027149  0.19287256  0.80666660    -0.22700
F693        F  0.62413518  0.22618088  0.85537907    -0.24200
F694        F  0.56642674  0.19936837  0.86146480    -0.18200
F695        F  0.66174154  0.16693187  0.71541925    -0.20700
F696        F  0.72445854  0.17543400  0.70369178    -0.21900
F697        F  0.68130861  0.22067323  0.69940361    -0.19000
F698        F  0.75335660  0.23181396  0.89307296    -0.19100
F699        F  0.74446594  0.17299287  0.89758186    -0.23000
F700        F  0.69412729  0.21078425  0.90692345    -0.24600
C701        C  0.19204747  0.33387981  0.20441209    -0.11400
C702        C  0.17213292  0.31673699  0.17490454     0.11200
C703        C  0.17793905  0.28012347  0.16931984    -0.03200
C704        C  0.20341696  0.26179861  0.19440314    -0.05900
C705        C  0.22633062  0.27858366  0.22339988    -0.16700
C706        C  0.21653806  0.31584949  0.23095587     0.02200
C707        C  0.14652723  0.33892473  0.14972223     0.12200
C708        C  0.15827234  0.26067249  0.13618411     0.62800
H709        H  0.20667356  0.23367806  0.19037963     0.12200
C710        C  0.22822144  0.33930031  0.26544207     0.54900
H711        H  0.18732967  0.36234939  0.20692549     0.08000
C712        C  0.10943717  0.35109395  0.16190791    -0.05800
C713        C  0.08953111  0.37631965  0.13883821    -0.06500
C714        C  0.10553034  0.38984193  0.10426278    -0.16100
C715        C  0.14213530  0.37599623  0.09125327    -0.01700
C716        C  0.16205245  0.35124524  0.11481757    -0.09300
C717        C  0.09137410  0.33809648  0.19954814     0.65000
H718        H  0.06155510  0.38639066  0.14838736     0.10500
C719        C  0.16117936  0.38716584  0.05332928     0.63400
H720        H  0.19083175  0.34189840  0.10678158     0.07800
F721        F  0.23029214  0.32129356  0.29998419    -0.19600
F722        F  0.20062330  0.36575050  0.27182386    -0.15900
F723        F  0.26289713  0.35635044  0.25784728    -0.19400
F724        F  0.16745380  0.22473059  0.13608100    -0.22700
F725        F  0.17023778  0.27494902  0.10122844    -0.24200
F726        F  0.11826446  0.26405772  0.13907898    -0.18200
F727        F  0.17068790  0.42289055  0.05450461    -0.20700
F728        F  0.13612542  0.38075475  0.02277306    -0.21900
F729        F  0.19521807  0.36833408  0.04619271    -0.19000
F730        F  0.11348417  0.34921629  0.23063148    -0.19100
F731        F  0.08970791  0.30133844  0.19983257    -0.23000
F732        F  0.05384249  0.35105395  0.20439105    -0.24600
C733        C  0.16823983  0.65034055  0.11188777    -0.11400
C734        C  0.15112650  0.66389716  0.14555496     0.11200
C735        C  0.11245536  0.65450981  0.15499543    -0.03200
C736        C  0.09330568  0.62921110  0.13204520    -0.05900
C737        C  0.11107052  0.61353913  0.09950165    -0.16700
C738        C  0.14889411  0.62545910  0.08825357     0.02200
C739        C  0.17493331  0.68662332  0.17153006     0.12200
C740        C  0.09165518  0.67097612  0.18943546     0.62800
H741        H  0.06409395  0.62121074  0.13985488     0.12200
C742        C  0.16939707  0.61219175  0.05205827     0.54900
H743        H  0.19751074  0.65887622  0.10488634     0.08000
C744        C  0.20022603  0.67164222  0.19928715    -0.05800
C745        C  0.21979164  0.69433145  0.22482129    -0.06500
C746        C  0.21793336  0.73214913  0.22227199    -0.16100
C747        C  0.18880481  0.74672148  0.19596403    -0.01700
C748        C  0.16967030  0.72345789  0.17019346    -0.09300
C749        C  0.20738865  0.63162286  0.20127010     0.65000
H750        H  0.23738740  0.68161427  0.24654541     0.10500
C751        C  0.17499208  0.78564855  0.19521281     0.63400
H752        H  0.14895007  0.73364428  0.14919265     0.07800
F753        F  0.17665773  0.57603597  0.05523513    -0.19600
F754        F  0.20480206  0.62892024  0.04621061    -0.15900
F755        F  0.14644867  0.61904985  0.01989902    -0.19400
F756        F  0.08820646  0.70735158  0.18400836    -0.22700
F757        F  0.11245362  0.66436256  0.22302491    -0.24200
F758        F  0.05453750  0.65740228  0.19424120    -0.18200
F759        F  0.15046475  0.79268014  0.16420936    -0.20700
F760        F  0.20536681  0.80923995  0.19201914    -0.21900
F761        F  0.15393467  0.79291289  0.22827731    -0.19000
F762        F  0.23171865  0.62209366  0.23164623    -0.19100
F763        F  0.22479300  0.62043719  0.16733177    -0.23000
F764        F  0.17254757  0.61384707  0.20611781    -0.24600
C765        C  0.84741617  0.62172565  0.16516086    -0.11400
C766        C  0.84261436  0.65735551  0.15373511     0.11200
C767        C  0.86325840  0.67059609  0.12127784    -0.03200
C768        C  0.88672676  0.64687728  0.09993288    -0.05900
C769        C  0.89127052  0.61121842  0.11133460    -0.16700
C770        C  0.87160484  0.59829147  0.14452010     0.02200
C771        C  0.81878050  0.68065778  0.17905876     0.12200
C772        C  0.86085729  0.70960120  0.10972625     0.62800
H773        H  0.90217460  0.65606718  0.07447216     0.12200
C774        C  0.87592279  0.55984250  0.15783708     0.54900
H775        H  0.83236071  0.61258834  0.19088237     0.08000
C776        C  0.77779979  0.68072093  0.17838116    -0.05800
C777        C  0.75767162  0.70137257  0.20577508    -0.06500
C778        C  0.77653780  0.72224041  0.23443851    -0.16100
C779        C  0.81827354  0.71634195  0.23834419    -0.01700
C780        C  0.83812821  0.69875098  0.20829890    -0.09300
C781        C  0.75543444  0.65916685  0.14868937     0.65000
H782        H  0.72640725  0.70180356  0.20443359     0.10500
C783        C  0.84421175  0.72216140  0.27386654     0.63400
H784        H  0.86965686  0.69629833  0.20936100     0.07800
F785        F  0.85217793  0.55223317  0.18915516    -0.19600
F786        F  0.91406351  0.55327610  0.16880096    -0.15900
F787        F  0.86597487  0.53716358  0.12805552    -0.19400
F788        F  0.87458104  0.73054475  0.13951751    -0.22700
F789        F  0.82264110  0.71892635  0.10188933    -0.24200
F790        F  0.88292045  0.71682155  0.07711347    -0.18200
F791        F  0.87002678  0.69386305  0.27824058    -0.20700
F792        F  0.82432393  0.72342065  0.30811258    -0.21900
F793        F  0.86601397  0.75268053  0.26909924    -0.19000
F794        F  0.71565033  0.66516831  0.15092732    -0.19100
F795        F  0.76215591  0.62324965  0.15476614    -0.23000
F796        F  0.76742799  0.66817848  0.11175201    -0.24600
C797        C  0.17556403  0.71799581  0.83594207    -0.11400
C798        C  0.17737980  0.68170375  0.82817763     0.11200
C799        C  0.20285235  0.66887836  0.79958601    -0.03200
C800        C  0.22429196  0.69354234  0.77787040    -0.05900
C801        C  0.22029568  0.73100816  0.78220875    -0.16700
C802        C  0.19796074  0.74309065  0.81533684     0.02200
C803        C  0.15202497  0.65758065  0.85060632     0.12200
C804        C  0.20680626  0.62918657  0.79150463     0.62800
H805        H  0.24397215  0.68275251  0.75683669     0.12200
C806        C  0.19796072  0.78091624  0.83171661     0.54900
H807        H  0.15633875  0.72632949  0.85904422     0.08000
C808        C  0.16151762  0.64649243  0.88854711    -0.05800
C809        C  0.13723878  0.62169993  0.90687547    -0.06500
C810        C  0.10406508  0.60762536  0.88852333    -0.16100
C811        C  0.09382725  0.62010113  0.85076736    -0.01700
C812        C  0.11800419  0.64538639  0.83285372    -0.09300
C813        C  0.19725709  0.66056709  0.90944257     0.65000
H814        H  0.14450348  0.61282647  0.93585069     0.10500
C815        C  0.05853042  0.60672694  0.82859178     0.63400
H816        H  0.11126849  0.65527935  0.80408975     0.07800
F817        F  0.23350949  0.78765889  0.84877797    -0.19600
F818        F  0.17003123  0.78546213  0.86022663    -0.15900
F819        F  0.19006975  0.80620127  0.80385396    -0.19400
F820        F  0.17188457  0.61608464  0.77778863    -0.22700
F821        F  0.21681414  0.61114701  0.82507523    -0.24200
F822        F  0.23514686  0.62205325  0.76409588    -0.18200
F823        F  0.05482965  0.62291962  0.79265512    -0.20700
F824        F  0.02490560  0.61400833  0.84908906    -0.21900
F825        F  0.06190794  0.57046146  0.82257348    -0.19000
F826        F  0.20241248  0.64449228  0.94525343    -0.19100
F827        F  0.19332042  0.69678126  0.91526182    -0.23000
F828        F  0.23035630  0.65425029  0.88769921    -0.24600
C829        C  0.83464074  0.68533109  0.77805317    -0.11400
C830        C  0.82972525  0.68704396  0.81797768     0.11200
C831        C  0.80610779  0.71394915  0.83370000    -0.03200
C832        C  0.78488792  0.73601530  0.80835058    -0.05900
C833        C  0.78327435  0.73056811  0.76751853    -0.16700
C834        C  0.81387240  0.70764877  0.75214422     0.02200
C835        C  0.85066396  0.66065986  0.84257354     0.12200
C836        C  0.80276271  0.71895799  0.87724430     0.62800
H837        H  0.76902052  0.75755812  0.82142441     0.12200
C838        C  0.82754073  0.70648662  0.70991024     0.54900
H839        H  0.85553774  0.66597279  0.76752156     0.08000
C840        C  0.83656097  0.62554413  0.84752480    -0.05800
C841        C  0.85775567  0.60177481  0.87116875    -0.06500
C842        C  0.89201276  0.61229453  0.88990329    -0.16100
C843        C  0.90550426  0.64758431  0.88588261    -0.01700
C844        C  0.88505881  0.67108261  0.86126785    -0.09300
C845        C  0.79939053  0.61331278  0.82780797     0.65000
H846        H  0.84801709  0.57457440  0.87488196     0.10500
C847        C  0.94019111  0.66055953  0.90897949     0.63400
H848        H  0.89538031  0.69800109  0.85687318     0.07800
F849        F  0.85738056  0.68205007  0.70434030    -0.19600
F850        F  0.84225493  0.73898986  0.69865005    -0.15900
F851        F  0.79814749  0.69661202  0.68549981    -0.19400
F852        F  0.83834348  0.72913810  0.89220216    -0.22700
F853        F  0.79143623  0.68742575  0.89463902    -0.24200
F854        F  0.77559009  0.74484430  0.88678089    -0.18200
F855        F  0.97299271  0.64095945  0.89969415    -0.20700
F856        F  0.93259731  0.65655442  0.94807748    -0.21900
F857        F  0.94794603  0.69612431  0.90178902    -0.19000
F858        F  0.78933104  0.57909813  0.83889923    -0.19100
F859        F  0.80435920  0.61362902  0.78810731    -0.23000
F860        F  0.76884421  0.63577655  0.83732912    -0.24600
C861        C  0.17112378  0.32375786  0.79156678    -0.11400
C862        C  0.16785374  0.31292367  0.82997079     0.11200
C863        C  0.18383208  0.28016462  0.84155167    -0.03200
C864        C  0.20742866  0.26163534  0.81520907    -0.05900
C865        C  0.21561240  0.27394420  0.77674659    -0.16700
C866        C  0.19182388  0.30395164  0.76363259     0.02200
C867        C  0.14558340  0.33624905  0.85652136     0.12200
C868        C  0.17498574  0.26436974  0.88123288     0.62800
H869        H  0.21798731  0.23607880  0.82488811     0.12200
C870        C  0.18557819  0.31648869  0.72165649     0.54900
H871        H  0.15648925  0.34837754  0.78367264     0.08000
C872        C  0.16377822  0.36459716  0.87614542    -0.05800
C873        C  0.14046758  0.38812248  0.89762934    -0.06500
C874        C  0.09960916  0.38546117  0.89812298    -0.16100
C875        C  0.08137804  0.35692398  0.87844880    -0.01700
C876        C  0.10496940  0.33248713  0.85821570    -0.09300
C877        C  0.20731722  0.37120850  0.87244557     0.65000
H878        H  0.15398976  0.41015203  0.91251865     0.10500
C879        C  0.03745798  0.35213760  0.87859217     0.63400
H880        H  0.09180659  0.31094906  0.84217521     0.07800
F881        F  0.21790172  0.33337652  0.70734185    -0.19600
F882        F  0.15532979  0.34096491  0.71869792    -0.15900
F883        F  0.17514709  0.28888501  0.69792475    -0.19400
F884        F  0.13527061  0.25926826  0.88480411    -0.22700
F885        F  0.18721754  0.28708669  0.91006474    -0.24200
F886        F  0.19330610  0.23181214  0.88697108    -0.18200
F887        F  0.01993540  0.37919372  0.85748183    -0.20700
F888        F  0.02367801  0.35266494  0.91620553    -0.21900
F889        F  0.02666096  0.32008347  0.86221319    -0.19000
F890        F  0.21927492  0.39952214  0.89496203    -0.19100
F891        F  0.21631691  0.37893523  0.83432645    -0.23000
F892        F  0.22816315  0.34141701  0.88397297    -0.24600
C893        C  0.81887276  0.38716032  0.13908359    -0.11400
C894        C  0.83719647  0.36055795  0.16102569     0.11200
C895        C  0.87811603  0.35610007  0.15905855    -0.03200
C896        C  0.89974036  0.38011144  0.13637652    -0.05900
C897        C  0.88143814  0.40685112  0.11426343    -0.16700
C898        C  0.84010663  0.41038517  0.11531295     0.02200
C899        C  0.81171116  0.33612960  0.18303645     0.12200
C900        C  0.89860151  0.32557349  0.17979270     0.62800
H901        H  0.93116222  0.37756448  0.13486938     0.12200
C902        C  0.81803453  0.43852837  0.09209738     0.54900
H903        H  0.78737686  0.38906701  0.14033947     0.08000
C904        C  0.79793552  0.34410928  0.22035986    -0.05800
C905        C  0.77366018  0.31924285  0.23899562    -0.06500
C906        C  0.76042875  0.28749887  0.22091701    -0.16100
C907        C  0.76594653  0.28660636  0.17916026    -0.01700
C908        C  0.79578220  0.30755129  0.16314189    -0.09300
C909        C  0.80881431  0.37864449  0.24028234     0.65000
H910        H  0.76562080  0.32445803  0.26863750     0.10500
C911        C  0.73973841  0.27076471  0.14775129     0.63400
H912        H  0.80353465  0.30437472  0.13287861     0.07800
F913        F  0.77882538  0.43955186  0.10152780    -0.19600
F914        F  0.82074058  0.43112959  0.05301280    -0.15900
F915        F  0.83322905  0.47185462  0.09939852    -0.19400
F916        F  0.88439318  0.29352249  0.16640918    -0.22700
F917        F  0.89226148  0.32778270  0.21916758    -0.24200
F918        F  0.93846495  0.32594315  0.17360409    -0.18200
F919        F  0.70337764  0.26105102  0.15989646    -0.20700
F920        F  0.75808781  0.24207955  0.13063301    -0.21900
F921        F  0.73320107  0.29611611  0.11910919    -0.19000
F922        F  0.79432385  0.38028725  0.27761554    -0.19100
F923        F  0.79363317  0.40710863  0.21957297    -0.23000
F924        F  0.84884547  0.38200884  0.24218967    -0.24600
C925        C  0.83266247  0.38482723  0.84809075    -0.11400
C926        C  0.83300274  0.34878643  0.85884059     0.11200
C927        C  0.85637478  0.33721640  0.89038819    -0.03200
C928        C  0.87906411  0.36255926  0.91008170    -0.05900
C929        C  0.87890309  0.39849301  0.89887053    -0.16700
C930        C  0.85490451  0.41010006  0.86795263     0.02200
C931        C  0.81139980  0.32383678  0.83359454     0.12200
C932        C  0.85717869  0.29847049  0.90316727     0.62800
H933        H  0.89745108  0.35450199  0.93411690     0.12200
C934        C  0.85286988  0.44904602  0.85605557     0.54900
H935        H  0.81522824  0.39288206  0.82335956     0.08000
C936        C  0.77052663  0.32182784  0.83373937    -0.05800
C937        C  0.75223209  0.30113259  0.80543648    -0.06500
C938        C  0.77258886  0.28199983  0.77613411    -0.16100
C939        C  0.81405641  0.28886010  0.77355771    -0.01700
C940        C  0.83229963  0.30691395  0.80432489    -0.09300
C941        C  0.74613947  0.34181920  0.86336824     0.65000
H942        H  0.72093283  0.29964113  0.80623621     0.10500
C943        C  0.84084020  0.28326951  0.73870616     0.63400
H944        H  0.86365803  0.31062938  0.80396255     0.07800
F945        F  0.84173791  0.46950461  0.88737730    -0.19600
F946        F  0.82616795  0.45484411  0.82657582    -0.15900
F947        F  0.88899106  0.46012824  0.84321081    -0.19400
F948        F  0.87026375  0.27717901  0.87332306    -0.22700
F949        F  0.82011504  0.28791833  0.91364957    -0.24200
F950        F  0.88161355  0.29309000  0.93460908    -0.18200
F951        F  0.86734158  0.31091117  0.73582377    -0.20700
F952        F  0.82151523  0.28345036  0.70397240    -0.21900
F953        F  0.86191149  0.25207182  0.74317475    -0.19000
F954        F  0.70735896  0.33182598  0.86224865    -0.19100
F955        F  0.74793597  0.37798541  0.85605381    -0.23000
F956        F  0.75994164  0.33507861  0.90030068    -0.24600
C957        C  0.65236687  0.65640862  0.61630513    -0.11400
C958        C  0.64604921  0.65821224  0.65623739     0.11200
C959        C  0.61441345  0.64000736  0.67317537    -0.03200
C960        C  0.59212103  0.61747334  0.64967675    -0.05900
C961        C  0.59947463  0.61410258  0.60975445    -0.16700
C962        C  0.62909454  0.63514217  0.59236854     0.02200
C963        C  0.67206686  0.68109165  0.67915671     0.12200
C964        C  0.60345504  0.64552005  0.71540227     0.62800
H965        H  0.56872974  0.60223233  0.66252056     0.12200
C966        C  0.63581552  0.63619606  0.54888461     0.54900
H967        H  0.67599744  0.67183168  0.60407881     0.08000
C968        C  0.70551007  0.66767393  0.69763174    -0.05800
C969        C  0.72764628  0.69085764  0.72038320    -0.06500
C970        C  0.72187128  0.72844921  0.72026957    -0.16100
C971        C  0.68744828  0.74172671  0.70004767    -0.01700
C972        C  0.66322254  0.71720631  0.68098812    -0.09300
C973        C  0.71912932  0.62946095  0.69139738     0.65000
H974        H  0.75027074  0.67895134  0.73713058     0.10500
C975        C  0.67278503  0.78031708  0.69915775     0.63400
H976        H  0.63673442  0.72597057  0.66683952     0.07800
F977        F  0.65283592  0.60468723  0.53689585    -0.19600
F978        F  0.66028844  0.66376023  0.53825001    -0.15900
F979        F  0.60073997  0.64135643  0.52978971    -0.19400
F980        F  0.59341793  0.68081139  0.72107338    -0.22700
F981        F  0.63434566  0.63696465  0.73943593    -0.24200
F982        F  0.57205751  0.62472907  0.72621415    -0.18200
F983        F  0.64643533  0.78613185  0.66933626    -0.20700
F984        F  0.70232004  0.80426965  0.69326586    -0.21900
F985        F  0.65356234  0.78790448  0.73320348    -0.19000
F986        F  0.75318322  0.62184384  0.71138977    -0.19100
F987        F  0.72627206  0.62423954  0.65243617    -0.23000
F988        F  0.69105048  0.60564797  0.70341194    -0.24600
C989        C  0.33462389  0.35507395  0.63401091    -0.11400
C990        C  0.35264212  0.34644677  0.66922432     0.11200
C991        C  0.38974316  0.36025355  0.67787583    -0.03200
C992        C  0.40563485  0.38588229  0.65272099    -0.05900
C993        C  0.38665641  0.39652294  0.61822773    -0.16700
C994        C  0.35128928  0.37932543  0.60768645     0.02200
C995        C  0.33143957  0.32260139  0.69607762     0.12200
C996        C  0.41300741  0.34686176  0.71254635     0.62800
H997        H  0.43345671  0.39757036  0.65989718     0.12200
C998        C  0.33090193  0.38588104  0.56919764     0.54900
H999        H  0.30684906  0.34281759  0.62763768     0.08000
C1000       C  0.30439986  0.33579739  0.72309955    -0.05800
C1001       C  0.28173538  0.31134064  0.74401848    -0.06500
C1002       C  0.28017613  0.27465567  0.73443175    -0.16100
C1003       C  0.31291965  0.26130375  0.71221780    -0.01700
C1004       C  0.33680419  0.28598059  0.69253713    -0.09300
C1005       C  0.29748861  0.37561655  0.72789229     0.65000
H1006       H  0.26339627  0.32186162  0.76647763     0.10500
C1007       C  0.32538397  0.22227217  0.70970681     0.63400
H1008       H  0.35968769  0.27700187  0.67330478     0.07800
F1009       F  0.31741916  0.42060559  0.56725583    -0.19600
F1010       F  0.29921874  0.36366170  0.56423110    -0.15900
F1011       F  0.35650408  0.37941012  0.53908290    -0.19400
F1012       F  0.42156242  0.31115103  0.70767408    -0.22700
F1013       F  0.39199117  0.35089752  0.74633300    -0.24200
F1014       F  0.44779044  0.36497270  0.71669453    -0.18200
F1015       F  0.35355858  0.21680112  0.68163085    -0.20700
F1016       F  0.29474444  0.20067640  0.70040587    -0.21900
F1017       F  0.34145973  0.21150999  0.74448349    -0.19000
F1018       F  0.26951729  0.38283313  0.75567459    -0.19100
F1019       F  0.28474859  0.39011942  0.69322307    -0.23000
F1020       F  0.33150842  0.39230313  0.73876474    -0.24600
C1021       C  0.60722185  0.33604790  0.37007709    -0.11400
C1022       C  0.64470318  0.34582189  0.35788305     0.11200
C1023       C  0.66008574  0.37923067  0.36885843    -0.03200
C1024       C  0.63739717  0.40167800  0.39238976    -0.05900
C1025       C  0.59954107  0.39237232  0.40369588    -0.16700
C1026       C  0.58413081  0.35897891  0.39280759     0.02200
C1027       C  0.66617254  0.32193205  0.33101752     0.12200
C1028       C  0.69972808  0.39160100  0.35462284     0.62800
H1029       H  0.64842432  0.42747807  0.40082092     0.12200
C1030       C  0.54369767  0.34759383  0.40548732     0.54900
H1031       H  0.59586350  0.31062356  0.36080153     0.08000
C1032       C  0.69146009  0.29512835  0.34411685    -0.05800
C1033       C  0.71511557  0.27751672  0.31703199    -0.06500
C1034       C  0.71130336  0.28162641  0.27594954    -0.16100
C1035       C  0.68243264  0.30808111  0.26316351    -0.01700
C1036       C  0.66168035  0.32760402  0.29148763    -0.09300
C1037       C  0.69269830  0.28464330  0.38673123     0.65000
H1038       H  0.73716104  0.26073710  0.32949059     0.10500
C1039       C  0.67141665  0.31761626  0.22108089     0.63400
H1040       H  0.64111087  0.34825826  0.28331173     0.07800
F1041       F  0.53629760  0.31249197  0.39605316    -0.19600
F1042       F  0.51588179  0.36873138  0.38754198    -0.15900
F1043       F  0.54020954  0.35096395  0.44520289    -0.19400
F1044       F  0.69960116  0.39397934  0.31467649    -0.22700
F1045       F  0.72836333  0.36777009  0.36606479    -0.24200
F1046       F  0.70927247  0.42473539  0.36910939    -0.18200
F1047       F  0.64356250  0.34441298  0.21897988    -0.20700
F1048       F  0.65516031  0.28901551  0.20266226    -0.21900
F1049       F  0.70259789  0.33022076  0.20032311    -0.19000
F1050       F  0.71893159  0.25724501  0.39390492    -0.19100
F1051       F  0.65619296  0.27317227  0.39808350    -0.23000
F1052       F  0.70318150  0.31338677  0.40918186    -0.24600
C1053       C  0.32107530  0.68171309  0.28369237    -0.11400
C1054       C  0.31650180  0.68417401  0.32359339     0.11200
C1055       C  0.29521353  0.71263940  0.33930028    -0.03200
C1056       C  0.27462428  0.73525209  0.31397567    -0.05900
C1057       C  0.27544063  0.73158807  0.27289377    -0.16700
C1058       C  0.30351863  0.70605217  0.25774942     0.02200
C1059       C  0.33751497  0.65793977  0.34806212     0.12200
C1060       C  0.29516186  0.71959014  0.38267219     0.62800
H1061       H  0.25790084  0.75617903  0.32713814     0.12200
C1062       C  0.31819732  0.70437684  0.21578625     0.54900
H1063       H  0.34017572  0.66081649  0.27329373     0.08000
C1064       C  0.32027005  0.62542893  0.35951534    -0.05800
C1065       C  0.34233205  0.60155992  0.38223358    -0.06500
C1066       C  0.38157118  0.60818580  0.39105477    -0.16100
C1067       C  0.39937565  0.63991178  0.37778631    -0.01700
C1068       C  0.37660756  0.66471161  0.35704624    -0.09300
C1069       C  0.27961231  0.61531371  0.34607116     0.65000
H1070       H  0.32959236  0.57675447  0.39197805     0.10500
C1071       C  0.44210000  0.64754771  0.38536629     0.63400
H1072       H  0.38937087  0.68930216  0.34669453     0.07800
F1073       F  0.34260990  0.67545497  0.20966900    -0.19600
F1074       F  0.33987375  0.73426778  0.20736892    -0.15900
F1075       F  0.28839836  0.70118646  0.18945416    -0.19400
F1076       F  0.33279473  0.72618535  0.39494303    -0.22700
F1077       F  0.28103241  0.69037189  0.40252617    -0.24200
F1078       F  0.27232179  0.74872722  0.39230411    -0.18200
F1079       F  0.46498632  0.62380311  0.36489474    -0.20700
F1080       F  0.45010403  0.64417437  0.42446820    -0.21900
F1081       F  0.45216419  0.68166321  0.37390587    -0.19000
F1082       F  0.26832589  0.58258802  0.36076220    -0.19100
F1083       F  0.27899166  0.61334148  0.30612042    -0.23000
F1084       F  0.25262843  0.64044864  0.35780679    -0.24600
C1085       C  0.63960736  0.61795161  0.33546251    -0.11400
C1086       C  0.64979301  0.65107477  0.35083071     0.11200
C1087       C  0.63442253  0.66182673  0.38697688    -0.03200
C1088       C  0.61004829  0.63814986  0.40731290    -0.05900
C1089       C  0.60007829  0.60488950  0.39195088    -0.16700
C1090       C  0.61537954  0.59428976  0.35570142     0.02200
C1091       C  0.67494814  0.67454194  0.32699910     0.12200
C1092       C  0.64360509  0.69815025  0.40367532     0.62800
H1093       H  0.59836997  0.64547091  0.43530600     0.12200
C1094       C  0.60745647  0.55762837  0.33915603     0.54900
H1095       H  0.65109528  0.61073723  0.30736038     0.08000
C1096       C  0.71561227  0.66998716  0.32482315    -0.05800
C1097       C  0.73700790  0.69331853  0.30104936    -0.06500
C1098       C  0.71962170  0.72105555  0.27874794    -0.16100
C1099       C  0.67767850  0.71820626  0.27411177    -0.01700
C1100       C  0.65672066  0.69840920  0.30181672    -0.09300
C1101       C  0.73637207  0.64102528  0.34797099     0.65000
H1102       H  0.76809602  0.69014447  0.30040079     0.10500
C1103       C  0.65190466  0.73015387  0.24019613     0.63400
H1104       H  0.62508110  0.69894388  0.30142466     0.07800
F1105       F  0.62872469  0.55142727  0.30580907    -0.19600
F1106       F  0.56838053  0.55458005  0.33007831    -0.15900
F1107       F  0.61758706  0.53168717  0.36598918    -0.19400
F1108       F  0.63023030  0.72456120  0.37890859    -0.22700
F1109       F  0.68339746  0.70167788  0.40834361    -0.24200
F1110       F  0.62615901  0.70312934  0.43937495    -0.18200
F1111       F  0.62645803  0.70298667  0.23071864    -0.20700
F1112       F  0.67132497  0.73753918  0.20648633    -0.21900
F1113       F  0.62976393  0.75921019  0.25111929    -0.19000
F1114       F  0.77639257  0.64216418  0.34309263    -0.19100
F1115       F  0.72375538  0.60792873  0.33614598    -0.23000
F1116       F  0.72849501  0.64494894  0.38694822    -0.24600
C1117       C  0.63069250  0.38736195  0.68219840    -0.11400
C1118       C  0.64457468  0.35651912  0.66414573     0.11200
C1119       C  0.63279853  0.34836453  0.62598558    -0.03200
C1120       C  0.60979835  0.37327442  0.60581605    -0.05900
C1121       C  0.59679002  0.40465093  0.62345737    -0.16700
C1122       C  0.60657568  0.41172520  0.66255315     0.02200
C1123       C  0.66995082  0.33261606  0.68708055     0.12200
C1124       C  0.64400655  0.31348001  0.60689968     0.62800
H1125       H  0.60146880  0.36834563  0.57606951     0.12200
C1126       C  0.59269035  0.44509158  0.68321363     0.54900
H1127       H  0.63916167  0.39215806  0.71193238     0.08000
C1128       C  0.71025186  0.33828294  0.69046809    -0.05800
C1129       C  0.73218964  0.31413229  0.71282620    -0.06500
C1130       C  0.71561219  0.28439473  0.73222991    -0.16100
C1131       C  0.67355947  0.28560289  0.73631045    -0.01700
C1132       C  0.65220089  0.30688178  0.71010178    -0.09300
C1133       C  0.73014906  0.36901457  0.66968825     0.65000
H1134       H  0.76326022  0.31778788  0.71390948     0.10500
C1135       C  0.64819572  0.27006104  0.76854956     0.63400
H1136       H  0.62060857  0.30547745  0.70968607     0.07800
F1137       F  0.60863152  0.44785529  0.71991683    -0.19600
F1138       F  0.55260796  0.44435581  0.68714614    -0.15900
F1139       F  0.60332122  0.47501732  0.66231619    -0.19400
F1140       F  0.63137815  0.28524533  0.62937276    -0.22700
F1141       F  0.68396321  0.31141593  0.60275724    -0.24200
F1142       F  0.62737007  0.31020501  0.57056619    -0.18200
F1143       F  0.61977338  0.29458685  0.77895755    -0.20700
F1144       F  0.66782832  0.26257857  0.80221794    -0.21900
F1145       F  0.62940136  0.24007553  0.75535172    -0.19000
F1146       F  0.76996303  0.36923251  0.67625393    -0.19100
F1147       F  0.71503464  0.40102250  0.68252632    -0.23000
F1148       F  0.72415338  0.36650351  0.63024233    -0.24600
C1149       C  0.27454072  0.69005359  0.66897537    -0.11400
C1150       C  0.31453042  0.69539058  0.66944521     0.11200
C1151       C  0.32975142  0.72452978  0.68950322    -0.03200
C1152       C  0.30466697  0.74421688  0.71349570    -0.05900
C1153       C  0.26450048  0.73562783  0.71910961    -0.16700
C1154       C  0.24846018  0.71102687  0.69076861     0.02200
C1155       C  0.33932304  0.66974385  0.64810601     0.12200
C1156       C  0.37229650  0.73484495  0.68518401     0.62800
H1157       H  0.31720147  0.76680651  0.72778651     0.12200
C1158       C  0.20532079  0.70533855  0.68102577     0.54900
H1159       H  0.26399899  0.66852156  0.65110748     0.08000
C1160       C  0.35123488  0.63721334  0.66538011    -0.05800
C1161       C  0.37277905  0.61295915  0.64313882    -0.06500
C1162       C  0.38143372  0.61972576  0.60415046    -0.16100
C1163       C  0.36950715  0.65220924  0.58675718    -0.01700
C1164       C  0.34841164  0.67685432  0.60923507    -0.09300
C1165       C  0.34033376  0.62781242  0.70681421     0.65000
H1166       H  0.38215362  0.58786901  0.65576362     0.10500
C1167       C  0.37986208  0.66106728  0.54513444     0.63400
H1168       H  0.33833856  0.70168913  0.59655894     0.07800
F1169       F  0.20060249  0.68529498  0.64778249    -0.19600
F1170       F  0.18665745  0.73705391  0.67336008    -0.15900
F1171       F  0.18667368  0.68694207  0.70992904    -0.19400
F1172       F  0.37958940  0.74396036  0.64705297    -0.22700
F1173       F  0.39617189  0.70660982  0.69559079    -0.24200
F1174       F  0.38192570  0.76363045  0.70809689    -0.18200
F1175       F  0.36150423  0.63766018  0.52043142    -0.20700
F1176       F  0.41977194  0.65841705  0.54011994    -0.21900
F1177       F  0.36846915  0.69530968  0.53505218    -0.19000
F1178       F  0.35587726  0.59531118  0.71822316    -0.19100
F1179       F  0.30026699  0.62583738  0.71014868    -0.23000
F1180       F  0.35406509  0.65350217  0.73177727    -0.24600
C1181       C  0.33208608  0.31816962  0.29215679    -0.11400
C1182       C  0.32572105  0.31314146  0.33155462     0.11200
C1183       C  0.29874060  0.28750191  0.34401283    -0.03200
C1184       C  0.27875696  0.26749578  0.31602888    -0.05900
C1185       C  0.28207449  0.27390152  0.27537462    -0.16700
C1186       C  0.31151613  0.29933958  0.26350114     0.02200
C1187       C  0.34570522  0.33765417  0.35860928     0.12200
C1188       C  0.29032406  0.28199253  0.38684459     0.62800
H1189       H  0.25995936  0.24701094  0.32680111     0.12200
C1190       C  0.32349449  0.30754851  0.22167322     0.54900
H1191       H  0.35359019  0.33786095  0.28412045     0.08000
C1192       C  0.38524688  0.33318506  0.36953136    -0.05800
C1193       C  0.40282935  0.35959369  0.39243108    -0.06500
C1194       C  0.38221334  0.39010801  0.40410693    -0.16100
C1195       C  0.34277008  0.39467748  0.39267479    -0.01700
C1196       C  0.32522356  0.36816962  0.37011061    -0.09300
C1197       C  0.40901729  0.30133206  0.35604214     0.65000
H1198       H  0.43316457  0.35701392  0.40075235     0.10500
C1199       C  0.31979142  0.42814136  0.40245002     0.63400
H1200       H  0.29537955  0.37137038  0.36036556     0.07800
F1201       F  0.34657966  0.28030013  0.20767435    -0.19600
F1202       F  0.34531883  0.33839369  0.21893104    -0.15900
F1203       F  0.29177134  0.31290721  0.19795218    -0.19400
F1204       F  0.27438679  0.31273130  0.40212968    -0.22700
F1205       F  0.32437347  0.27390204  0.40645624    -0.24200
F1206       F  0.26427023  0.25456435  0.39324026    -0.18200
F1207       F  0.28367707  0.42880937  0.38453614    -0.20700
F1208       F  0.34004964  0.45794474  0.39032210    -0.21900
F1209       F  0.31376617  0.42980149  0.44195535    -0.19000
F1210       F  0.44580272  0.30067637  0.37255924    -0.19100
F1211       F  0.41337789  0.30266257  0.31629564    -0.23000
F1212       F  0.39047222  0.27003589  0.36601361    -0.24600
loop_ 
_geom_bond_atom_site_label_1 
_geom_bond_atom_site_label_2 
_geom_bond_distance 
_geom_bond_site_symmetry_2 
_ccdc_geom_bond_type 
N1            N2   1.321       .  A
N1            N7   1.316       .  A
N1          Mn30   2.206       .  S
N2            C9   1.353       .  A
N3            N5   1.316       .  A
N3            N4   1.320       .  A
N3          Mn19   2.198       .  S
N4           C10   1.352       .  A
N5            N6   1.320       .  A
N5          Mn30   2.203       .  S
N6           C10   1.352       .  A
N7            N8   1.320       .  A
N7          Mn19   2.205       .  S
N8            C9   1.353       .  A
C9         C1194   1.480       .  S
C10        C1066   1.475       .  S
N11          N17   1.315       .  A
N11          N12   1.318       .  A
N11         Mn41   2.190       .  S
N12          C20   1.350       .  A
N13          N14   1.321       .  A
N13          N15   1.313       .  A
N13         Mn19   2.208       .  S
N14          C21   1.355       .  A
N15          N16   1.318       .  A
N15         Mn41   2.190       .  S
N16          C21   1.354       .  A
N17          N18   1.322       .  A
N17         Mn19   2.211       .  S
N18          C20   1.354       .  A
Mn19        Cl43   2.550       .  S
C20        C1162   1.474       .  S
C21         C993   1.495       .  S
N22          N23   1.321       .  A
N22          N28   1.316       .  A
N22         Mn30   2.211       .  S
N23          C31   1.354       .  A
N24          N26   1.315       .  A
N24          N25   1.322       .  A
N24         Mn42   2.206       .  S
N25          C32   1.354       .  A
N26          N27   1.320       .  A
N26         Mn30   2.200       .  S
N27          C32   1.352       .  A
N28          N29   1.320       .  A
N28         Mn42   2.195       .  S
N29          C31   1.351       .  A
Mn30        Cl43   2.540       .  S
C31        C1089   1.475       .  S
C32        C1025   1.478       .  S
N33          N34   1.317       .  A
N33          N39   1.315       .  A
N33         Mn41   2.186       .  S
N34          C44   1.349       .  A
N35          N36   1.317       .  A
N35          N37   1.314       .  A
N35         Mn42   2.196       .  S
N36          C45   1.351       .  A
N37          N38   1.320       .  A
N37         Mn41   2.191       .  S
N38          C45   1.354       .  A
N39          N40   1.319       .  A
N39         Mn42   2.197       .  S
N40          C44   1.352       .  A
Mn41        Cl43   2.541       .  S
Mn42        Cl43   2.545       .  S
C44        C1121   1.468       .  S
C45         C961   1.484       .  S
N46          N47   1.320       .  A
N46          N52   1.315       .  A
N46         Mn75   2.201       .  S
N47          C54   1.352       .  A
N48          N50   1.315       .  A
N48          N49   1.321       .  A
N48         Mn64   2.197   1_556  S
N49          C55   1.351       .  A
N50          N51   1.321       .  A
N50         Mn75   2.205       .  S
N51          C55   1.352       .  A
N52          N53   1.321       .  A
N52         Mn64   2.202   1_556  S
N53          C54   1.351       .  A
C54         C929   1.472       .  S
C55         C842   1.471       .  S
N56          N62   1.317       .  A
N56          N57   1.320       .  A
N56         Mn86   2.206       .  S
N57          C65   1.352       .  A
N58          N59   1.315       .  A
N58          N60   1.316       .  A
N58         Mn64   2.183       .  S
N59          C66   1.347       .  A
N60          N61   1.323       .  A
N60         Mn86   2.210       .  S
N61          C66   1.357       .  A
N62          N63   1.320       .  A
N62         Mn64   2.203       .  S
N63          C65   1.351       .  A
Mn64        Cl88   2.535       .  S
C65         C769   1.473       .  S
C66         C897   1.480       .  S
N67          N68   1.318       .  A
N67          N73   1.313       .  A
N67         Mn75   2.192   1_455  S
N68          C76   1.352       .  A
N69          N71   1.315       .  A
N69          N70   1.318       .  A
N69         Mn87   2.196       .  S
N70          C77   1.352       .  A
N71          N72   1.322       .  A
N71         Mn75   2.210   1_455  S
N72          C77   1.355       .  A
N73          N74   1.317       .  A
N73         Mn87   2.190       .  S
N74          C76   1.355       .  A
Mn75        Cl88   2.551   1_556  S
C76         C810   1.489       .  S
C77         C874   1.484       .  S
N78          N79   1.324       .  A
N78          N84   1.313       .  A
N78         Mn86   2.218   1_455  S
N79          C89   1.361       .  A
N80          N81   1.321       .  A
N80          N82   1.314       .  A
N80         Mn87   2.204   1_554  S
N81          C90   1.354       .  A
N82          N83   1.321       .  A
N82         Mn86   2.212   1_455  S
N83          C90   1.357       .  A
N84          N85   1.315       .  A
N84         Mn87   2.185   1_554  S
N85          C89   1.348       .  A
Mn86        Cl88   2.556       .  S
Mn87        Cl88   2.537   1_456  S
C89         C714   1.497       .  S
C90         C737   1.500       .  S
C91         C641   1.583       .  S
C91         C682   1.596       .  S
C91         C938   1.600       .  S
C91        C1130   1.579       .  S
N92          N93   1.320       .  A
N92          N98   1.316       .  A
N92        Mn121   2.209       .  S
N93         C100   1.354       .  A
N94          N96   1.315       .  A
N94          N95   1.319       .  A
N94        Mn110   2.200   1_566  S
N95         C101   1.351       .  A
N96          N97   1.322       .  A
N96        Mn121   2.211   1_565  S
N97         C101   1.357       .  A
N98          N99   1.317       .  A
N98        Mn110   2.180   1_556  S
N99         C100   1.348       .  A
C100        C673   1.473       .  S
C101        C522   1.494       .  S
N102        N108   1.316       .  A
N102        N103   1.326       .  A
N102       Mn132   2.232       .  S
N103        C111   1.359       .  A
N104        N105   1.321       .  A
N104        N106   1.315       .  A
N104       Mn110   2.205       .  S
N105        C112   1.353       .  A
N106        N107   1.320       .  A
N106       Mn132   2.198   1_545  S
N107        C112   1.352       .  A
N108        N109   1.317       .  A
N108       Mn110   2.184   1_565  S
N109        C111   1.347       .  A
Mn110      Cl134   2.533   1_554  S
C111        C577   1.483       .  S
C112        C417   1.478       .  S
N113        N114   1.323       .  A
N113        N119   1.315       .  A
N113       Mn121   2.216   1_565  S
N114        C122   1.356       .  A
N115        N117   1.314       .  A
N115        N116   1.318       .  A
N115       Mn133   2.195       .  S
N116        C123   1.354       .  A
N117        N118   1.323       .  A
N117       Mn121   2.215       .  S
N118        C123   1.357       .  A
N119        N120   1.320       .  A
N119       Mn133   2.207   1_565  S
N120        C122   1.356       .  A
Mn121      Cl134   2.561       .  S
C122        C618   1.499       .  S
C123        C545   1.499       .  S
N124        N125   1.325       .  A
N124        N130   1.316       .  A
N124       Mn132   2.230   1_545  S
N125        C135   1.359       .  A
N126        N127   1.320       .  A
N126        N128   1.317       .  A
N126       Mn133   2.196   1_564  S
N127        C136   1.350       .  A
N128        N129   1.320       .  A
N128       Mn132   2.204       .  S
N129        C136   1.352       .  A
N130        N131   1.318       .  A
N130       Mn133   2.195   1_554  S
N131        C135   1.350       .  A
Mn132      Cl134   2.559   1_564  S
Mn133      Cl134   2.537       .  S
C135        C458   1.493       .  S
C136        C481   1.469       .  S
C137        C394   1.585       .  S
C137        C609   1.602       .  S
C137        C801   1.566       .  S
C137       C1153   1.608       .  S
N138        N139   1.317       .  A
N138        N144   1.315       .  A
N138       Mn167   2.188       .  S
N139        C146   1.349       .  A
N140        N142   1.317       .  A
N140        N141   1.320       .  A
N140       Mn156   2.203   1_565  S
N141        C147   1.353       .  A
N142        N143   1.318       .  A
N142       Mn167   2.188   1_565  S
N143        C147   1.347       .  A
N144        N145   1.323       .  A
N144       Mn156   2.211       .  S
N145        C146   1.355       .  A
C146        C650   1.479       .  S
C147        C266   1.463       .  S
N148        N154   1.317       .  A
N148        N149   1.319       .  A
N148       Mn178   2.193   1_565  S
N149        C157   1.349       .  A
N150        N151   1.317       .  A
N150        N152   1.316       .  A
N150       Mn156   2.189       .  S
N151        C158   1.349       .  A
N152        N153   1.322       .  A
N152       Mn178   2.217       .  S
N153        C158   1.358       .  A
N154        N155   1.322       .  A
N154       Mn156   2.218   1_565  S
N155        C157   1.356       .  A
Mn156      Cl180   2.552       .  S
C157        C321   1.482       .  S
C158        C353   1.487       .  S
N159        N160   1.317       .  A
N159        N165   1.315       .  A
N159       Mn167   2.182   1_465  S
N160        C168   1.347       .  A
N161        N163   1.315       .  A
N161        N162   1.318       .  A
N161       Mn179   2.186       .  S
N162        C169   1.348       .  A
N163        N164   1.320       .  A
N163       Mn167   2.198   1_455  S
N164        C169   1.352       .  A
N165        N166   1.321       .  A
N165       Mn179   2.200   1_565  S
N166        C168   1.353       .  A
Mn167      Cl180   2.536       .  S
C168        C385   1.464       .  S
C169        C193   1.462       .  S
N170        N171   1.321       .  A
N170        N176   1.314       .  A
N170       Mn178   2.210   1_455  S
N171        C181   1.358       .  A
N172        N173   1.320       .  A
N172        N174   1.314       .  A
N172       Mn179   2.197   1_565  S
N173        C182   1.353       .  A
N174        N175   1.321       .  A
N174       Mn178   2.214   1_465  S
N175        C182   1.357       .  A
N176        N177   1.318       .  A
N176       Mn179   2.192       .  S
N177        C181   1.351       .  A
Mn178      Cl180   2.543       .  S
Mn179      Cl180   2.548   1_455  S
C181        C225   1.494       .  S
C182        C298   1.497       .  S
C183        C330   1.584       .  S
C183        C586   1.601       .  S
C183        C778   1.600       .  S
C183       C1098   1.584       .  S
C184        C234   1.599       .  S
C184        C449   1.583       .  S
C184        C705   1.599       .  S
C184       C1185   1.579       .  S
C185        C362   1.614       .  S
C185        C426   1.582       .  S
C185        C906   1.583       .  S
C185       C1034   1.615       .  S
C186        C289   1.593       .  S
C186        C490   1.592       .  S
C186        C746   1.591       .  S
C186       C1057   1.588       .  S
C187        C202   1.582       .  S
C187        C554   1.600       .  S
C187        C865   1.611       .  S
C187       C1002   1.584       .  S
C188        C257   1.583       .  S
C188        C513   1.596       .  S
C188        C833   1.608       .  S
C188        C970   1.569       .  S
C189        C190   1.400       .  A
C189        C194   1.400       .  A
C189        H199   1.084       .  S
C190        C195   1.476       .  S
C190        C191   1.418       .  A
C191        C196   1.519       .  S
C191        C192   1.405       .  A
C192        C193   1.398       .  A
C192        H197   1.083       .  S
C193        C194   1.413       .  A
C194        C198   1.517       .  S
C195        C200   1.403       .  A
C195        C204   1.391       .  A
C196        F212   1.381       .  S
C196        F213   1.382       .  S
C196        F214   1.385       .  S
C198        F209   1.383       .  S
C198        F210   1.385       .  S
C198        F211   1.383       .  S
C200        C205   1.522       .  S
C200        C201   1.402       .  A
C201        C202   1.425       .  A
C201        H206   1.077       .  S
C202        C203   1.457       .  A
C203        C207   1.531       .  S
C203        C204   1.408       .  A
C204        H208   1.085       .  S
C205        F218   1.384       .  S
C205        F219   1.382       .  S
C205        F220   1.382       .  S
C207        F215   1.381       .  S
C207        F216   1.366       .  S
C207        F217   1.387       .  S
C221        C222   1.400       .  A
C221        C226   1.409       .  A
C221        H231   1.083       .  S
C222        C227   1.484       .  S
C222        C223   1.414       .  A
C223        C228   1.519       .  S
C223        C224   1.405       .  A
C224        C225   1.407       .  A
C224        H229   1.082       .  S
C225        C226   1.428       .  A
C226        C230   1.521       .  S
C227        C232   1.408       .  A
C227        C236   1.393       .  A
C228        F244   1.382       .  S
C228        F245   1.383       .  S
C228        F246   1.385       .  S
C230        F241   1.384       .  S
C230        F242   1.385       .  S
C230        F243   1.383       .  S
C232        C237   1.521       .  S
C232        C233   1.402       .  A
C233        C234   1.422       .  A
C233        H238   1.074       .  S
C234        C235   1.456       .  A
C235        C239   1.533       .  S
C235        C236   1.411       .  A
C236        H240   1.086       .  S
C237        F250   1.383       .  S
C237        F251   1.383       .  S
C237        F252   1.381       .  S
C239        F247   1.381       .  S
C239        F248   1.369       .  S
C239        F249   1.386       .  S
C253        C254   1.391       .  A
C253        C258   1.409       .  A
C253        H263   1.086       .  S
C254        C259   1.477       .  S
C254        C255   1.401       .  A
C255        C260   1.521       .  S
C255        C256   1.399       .  A
C256        C257   1.432       .  A
C256        H261   1.080       .  S
C257        C258   1.457       .  A
C258        C262   1.538       .  S
C259        C264   1.418       .  A
C259        C268   1.401       .  A
C260        F276   1.382       .  S
C260        F277   1.382       .  S
C260        F278   1.385       .  S
C262        F273   1.386       .  S
C262        F274   1.383       .  S
C262        F275   1.363       .  S
C264        C269   1.520       .  S
C264        C265   1.403       .  A
C265        C266   1.397       .  A
C265        H270   1.083       .  S
C266        C267   1.414       .  A
C267        C271   1.518       .  S
C267        C268   1.404       .  A
C268        H272   1.083       .  S
C269        F282   1.384       .  S
C269        F283   1.381       .  S
C269        F284   1.382       .  S
C271        F279   1.385       .  S
C271        F280   1.382       .  S
C271        F281   1.384       .  S
C285        C286   1.392       .  A
C285        C290   1.414       .  A
C285        H295   1.083       .  S
C286        C291   1.487       .  S
C286        C287   1.403       .  A
C287        C292   1.523       .  S
C287        C288   1.406       .  A
C288        C289   1.425       .  A
C288        H293   1.072       .  S
C289        C290   1.457       .  A
C290        C294   1.535       .  S
C291        C296   1.414       .  A
C291        C300   1.400       .  A
C292        F308   1.383       .  S
C292        F309   1.381       .  S
C292        F310   1.385       .  S
C294        F305   1.380       .  S
C294        F306   1.385       .  S
C294        F307   1.374       .  S
C296        C301   1.521       .  S
C296        C297   1.406       .  A
C297        C298   1.409       .  A
C297        H302   1.082       .  S
C298        C299   1.427       .  A
C299        C303   1.521       .  S
C299        C300   1.411       .  A
C300        H304   1.083       .  S
C301        F314   1.385       .  S
C301        F315   1.382       .  S
C301        F316   1.381       .  S
C303        F311   1.385       .  S
C303        F312   1.384       .  S
C303        F313   1.382       .  S
C317        C318   1.403       .  A
C317        C322   1.409       .  A
C317        H327   1.083       .  S
C318        C323   1.487       .  S
C318        C319   1.416       .  A
C319        C324   1.520       .  S
C319        C320   1.406       .  A
C320        C321   1.403       .  A
C320        H325   1.083       .  S
C321        C322   1.419       .  A
C322        C326   1.520       .  S
C323        C328   1.402       .  A
C323        C332   1.393       .  A
C324        F340   1.382       .  S
C324        F341   1.383       .  S
C324        F342   1.384       .  S
C326        F337   1.383       .  S
C326        F338   1.384       .  S
C326        F339   1.383       .  S
C328        C333   1.522       .  S
C328        C329   1.402       .  A
C329        C330   1.428       .  A
C329        H334   1.080       .  S
C330        C331   1.462       .  A
C331        C335   1.536       .  S
C331        C332   1.417       .  A
C332        H336   1.083       .  S
C333        F346   1.385       .  S
C333        F347   1.382       .  S
C333        F348   1.382       .  S
C335        F343   1.386       .  S
C335        F344   1.379       .  S
C335        F345   1.368       .  S
C349        C350   1.400       .  A
C349        C354   1.407       .  A
C349        H359   1.083       .  S
C350        C355   1.488       .  S
C350        C351   1.417       .  A
C351        C356   1.519       .  S
C351        C352   1.406       .  A
C352        C353   1.405       .  A
C352        H357   1.082       .  S
C353        C354   1.423       .  A
C354        C358   1.521       .  S
C355        C360   1.402       .  A
C355        C364   1.388       .  A
C356        F372   1.382       .  S
C356        F373   1.381       .  S
C356        F374   1.385       .  S
C358        F369   1.383       .  S
C358        F370   1.385       .  S
C358        F371   1.383       .  S
C360        C365   1.521       .  S
C360        C361   1.403       .  A
C361        C362   1.434       .  A
C361        H366   1.080       .  S
C362        C363   1.461       .  A
C363        C367   1.526       .  S
C363        C364   1.415       .  A
C364        H368   1.082       .  S
C365        F378   1.385       .  S
C365        F379   1.381       .  S
C365        F380   1.383       .  S
C367        F375   1.378       .  S
C367        F376   1.372       .  S
C367        F377   1.386       .  S
C381        C382   1.399       .  A
C381        C386   1.403       .  A
C381        H391   1.083       .  S
C382        C387   1.476       .  S
C382        C383   1.417       .  A
C383        C388   1.519       .  S
C383        C384   1.403       .  A
C384        C385   1.397       .  A
C384        H389   1.083       .  S
C385        C386   1.415       .  A
C386        C390   1.517       .  S
C387        C392   1.401       .  A
C387        C396   1.389       .  A
C388        F404   1.382       .  S
C388        F405   1.382       .  S
C388        F406   1.384       .  S
C390        F401   1.385       .  S
C390        F402   1.382       .  S
C390        F403   1.382       .  S
C392        C397   1.521       .  S
C392        C393   1.398       .  A
C393        C394   1.428       .  A
C393        H398   1.079       .  S
C394        C395   1.460       .  A
C395        C399   1.535       .  S
C395        C396   1.409       .  A
C396        H400   1.086       .  S
C397        F410   1.385       .  S
C397        F411   1.382       .  S
C397        F412   1.383       .  S
C399        F407   1.382       .  S
C399        F408   1.363       .  S
C399        F409   1.387       .  S
C413        C414   1.400       .  A
C413        C418   1.406       .  A
C413        H423   1.083       .  S
C414        C419   1.484       .  S
C414        C415   1.416       .  A
C415        C420   1.519       .  S
C415        C416   1.407       .  A
C416        C417   1.403       .  A
C416        H421   1.083       .  S
C417        C418   1.419       .  A
C418        C422   1.519       .  S
C419        C424   1.405       .  A
C419        C428   1.392       .  A
C420        F436   1.382       .  S
C420        F437   1.382       .  S
C420        F438   1.385       .  S
C422        F433   1.385       .  S
C422        F434   1.383       .  S
C422        F435   1.382       .  S
C424        C429   1.522       .  S
C424        C425   1.404       .  A
C425        C426   1.424       .  A
C425        H430   1.075       .  S
C426        C427   1.452       .  A
C427        C431   1.529       .  S
C427        C428   1.410       .  A
C428        H432   1.084       .  S
C429        F442   1.385       .  S
C429        F443   1.382       .  S
C429        F444   1.382       .  S
C431        F439   1.386       .  S
C431        F440   1.378       .  S
C431        F441   1.368       .  S
C445        C446   1.392       .  A
C445        C450   1.411       .  A
C445        H455   1.082       .  S
C446        C451   1.493       .  S
C446        C447   1.410       .  A
C447        C452   1.521       .  S
C447        C448   1.410       .  A
C448        C449   1.427       .  A
C448        H453   1.072       .  S
C449        C450   1.451       .  A
C450        C454   1.533       .  S
C451        C456   1.418       .  A
C451        C460   1.400       .  A
C452        F468   1.381       .  S
C452        F469   1.383       .  S
C452        F470   1.385       .  S
C454        F465   1.380       .  S
C454        F466   1.385       .  S
C454        F467   1.375       .  S
C456        C461   1.520       .  S
C456        C457   1.411       .  A
C457        C458   1.406       .  A
C457        H462   1.083       .  S
C458        C459   1.424       .  A
C459        C463   1.520       .  S
C459        C460   1.408       .  A
C460        H464   1.083       .  S
C461        F474   1.384       .  S
C461        F475   1.381       .  S
C461        F476   1.383       .  S
C463        F471   1.383       .  S
C463        F472   1.383       .  S
C463        F473   1.385       .  S
C477        C478   1.403       .  A
C477        C482   1.405       .  A
C477        H487   1.083       .  S
C478        C483   1.480       .  S
C478        C479   1.415       .  A
C479        C484   1.520       .  S
C479        C480   1.405       .  A
C480        C481   1.402       .  A
C480        H485   1.083       .  S
C481        C482   1.412       .  A
C482        C486   1.517       .  S
C483        C488   1.401       .  A
C483        C492   1.392       .  A
C484        F500   1.382       .  S
C484        F501   1.382       .  S
C484        F502   1.384       .  S
C486        F497   1.384       .  S
C486        F498   1.384       .  S
C486        F499   1.382       .  S
C488        C493   1.523       .  S
C488        C489   1.401       .  A
C489        C490   1.428       .  A
C489        H494   1.071       .  S
C490        C491   1.456       .  A
C491        C495   1.537       .  S
C491        C492   1.411       .  A
C492        H496   1.083       .  S
C493        F506   1.385       .  S
C493        F507   1.382       .  S
C493        F508   1.382       .  S
C495        F503   1.380       .  S
C495        F504   1.374       .  S
C495        F505   1.385       .  S
C509        C510   1.395       .  A
C509        C514   1.415       .  A
C509        H519   1.083       .  S
C510        C515   1.485       .  S
C510        C511   1.404       .  A
C511        C516   1.526       .  S
C511        C512   1.400       .  A
C512        C513   1.427       .  A
C512        H517   1.070       .  S
C513        C514   1.455       .  A
C514        C518   1.535       .  S
C515        C520   1.414       .  A
C515        C524   1.398       .  A
C516        F532   1.382       .  S
C516        F533   1.382       .  S
C516        F534   1.385       .  S
C518        F529   1.380       .  S
C518        F530   1.385       .  S
C518        F531   1.374       .  S
C520        C525   1.520       .  S
C520        C521   1.407       .  A
C521        C522   1.408       .  A
C521        H526   1.082       .  S
C522        C523   1.427       .  A
C523        C527   1.521       .  S
C523        C524   1.407       .  A
C524        H528   1.083       .  S
C525        F538   1.385       .  S
C525        F539   1.382       .  S
C525        F540   1.382       .  S
C527        F535   1.383       .  S
C527        F536   1.384       .  S
C527        F537   1.385       .  S
C541        C542   1.402       .  A
C541        C546   1.411       .  A
C541        H551   1.083       .  S
C542        C547   1.487       .  S
C542        C543   1.413       .  A
C543        C548   1.522       .  S
C543        C544   1.405       .  A
C544        C545   1.411       .  A
C544        H549   1.082       .  S
C545        C546   1.425       .  A
C546        C550   1.519       .  S
C547        C552   1.402       .  A
C547        C556   1.393       .  A
C548        F564   1.382       .  S
C548        F565   1.382       .  S
C548        F566   1.385       .  S
C550        F561   1.383       .  S
C550        F562   1.385       .  S
C550        F563   1.383       .  S
C552        C557   1.521       .  S
C552        C553   1.403       .  A
C553        C554   1.432       .  A
C553        H558   1.080       .  S
C554        C555   1.458       .  A
C555        C559   1.532       .  S
C555        C556   1.417       .  A
C556        H560   1.082       .  S
C557        F570   1.385       .  S
C557        F571   1.382       .  S
C557        F572   1.382       .  S
C559        F567   1.374       .  S
C559        F568   1.379       .  S
C559        F569   1.386       .  S
C573        C574   1.401       .  A
C573        C578   1.407       .  A
C573        H583   1.083       .  S
C574        C579   1.491       .  S
C574        C575   1.419       .  A
C575        C580   1.517       .  S
C575        C576   1.410       .  A
C576        C577   1.401       .  A
C576        H581   1.083       .  S
C577        C578   1.422       .  A
C578        C582   1.521       .  S
C579        C584   1.407       .  A
C579        C588   1.391       .  A
C580        F596   1.380       .  S
C580        F597   1.382       .  S
C580        F598   1.384       .  S
C582        F593   1.382       .  S
C582        F594   1.385       .  S
C582        F595   1.383       .  S
C584        C589   1.520       .  S
C584        C585   1.410       .  A
C585        C586   1.430       .  A
C585        H590   1.075       .  S
C586        C587   1.453       .  A
C587        C591   1.528       .  S
C587        C588   1.413       .  A
C588        H592   1.082       .  S
C589        F602   1.385       .  S
C589        F603   1.382       .  S
C589        F604   1.382       .  S
C591        F599   1.376       .  S
C591        F600   1.368       .  S
C591        F601   1.385       .  S
C605        C606   1.393       .  A
C605        C610   1.416       .  A
C605        H615   1.082       .  S
C606        C611   1.493       .  S
C606        C607   1.406       .  A
C607        C612   1.523       .  S
C607        C608   1.406       .  A
C608        C609   1.428       .  A
C608        H613   1.072       .  S
C609        C610   1.456       .  A
C610        C614   1.533       .  S
C611        C616   1.415       .  A
C611        C620   1.401       .  A
C612        F628   1.381       .  S
C612        F629   1.383       .  S
C612        F630   1.385       .  S
C614        F625   1.381       .  S
C614        F626   1.385       .  S
C614        F627   1.374       .  S
C616        C621   1.520       .  S
C616        C617   1.408       .  A
C617        C618   1.409       .  A
C617        H622   1.082       .  S
C618        C619   1.426       .  A
C619        C623   1.519       .  S
C619        C620   1.412       .  A
C620        H624   1.083       .  S
C621        F634   1.385       .  S
C621        F635   1.382       .  S
C621        F636   1.381       .  S
C623        F631   1.385       .  S
C623        F632   1.383       .  S
C623        F633   1.383       .  S
C637        C638   1.390       .  A
C637        C642   1.415       .  A
C637        H647   1.082       .  S
C638        C643   1.483       .  S
C638        C639   1.402       .  A
C639        C644   1.520       .  S
C639        C640   1.401       .  A
C640        C641   1.425       .  A
C640        H645   1.081       .  S
C641        C642   1.465       .  A
C642        C646   1.538       .  S
C643        C648   1.417       .  A
C643        C652   1.399       .  A
C644        F660   1.382       .  S
C644        F661   1.382       .  S
C644        F662   1.384       .  S
C646        F657   1.386       .  S
C646        F658   1.379       .  S
C646        F659   1.369       .  S
C648        C653   1.520       .  S
C648        C649   1.408       .  A
C649        C650   1.405       .  A
C649        H654   1.083       .  S
C650        C651   1.418       .  A
C651        C655   1.519       .  S
C651        C652   1.404       .  A
C652        H656   1.083       .  S
C653        F666   1.385       .  S
C653        F667   1.382       .  S
C653        F668   1.382       .  S
C655        F663   1.385       .  S
C655        F664   1.383       .  S
C655        F665   1.382       .  S
C669        C670   1.401       .  A
C669        C674   1.405       .  A
C669        H679   1.082       .  S
C670        C675   1.483       .  S
C670        C671   1.417       .  A
C671        C676   1.516       .  S
C671        C672   1.403       .  A
C672        C673   1.399       .  A
C672        H677   1.084       .  S
C673        C674   1.420       .  A
C674        C678   1.520       .  S
C675        C680   1.405       .  A
C675        C684   1.391       .  A
C676        F692   1.380       .  S
C676        F693   1.382       .  S
C676        F694   1.385       .  S
C678        F689   1.383       .  S
C678        F690   1.385       .  S
C678        F691   1.383       .  S
C680        C685   1.522       .  S
C680        C681   1.403       .  A
C681        C682   1.429       .  A
C681        H686   1.075       .  S
C682        C683   1.450       .  A
C683        C687   1.525       .  S
C683        C684   1.411       .  A
C684        H688   1.083       .  S
C685        F698   1.385       .  S
C685        F699   1.381       .  S
C685        F700   1.383       .  S
C687        F695   1.385       .  S
C687        F696   1.377       .  S
C687        F697   1.366       .  S
C701        C702   1.389       .  A
C701        C706   1.411       .  A
C701        H711   1.084       .  S
C702        C707   1.485       .  S
C702        C703   1.403       .  A
C703        C708   1.520       .  S
C703        C704   1.405       .  A
C704        C705   1.424       .  A
C704        H709   1.071       .  S
C705        C706   1.462       .  A
C706        C710   1.539       .  S
C707        C712   1.415       .  A
C707        C716   1.396       .  A
C708        F724   1.384       .  S
C708        F725   1.382       .  S
C708        F726   1.382       .  S
C710        F721   1.370       .  S
C710        F722   1.387       .  S
C710        F723   1.379       .  S
C712        C717   1.520       .  S
C712        C713   1.408       .  A
C713        C714   1.408       .  A
C713        H718   1.082       .  S
C714        C715   1.430       .  A
C715        C719   1.523       .  S
C715        C716   1.406       .  A
C716        H720   1.083       .  S
C717        F730   1.382       .  S
C717        F731   1.382       .  S
C717        F732   1.385       .  S
C719        F727   1.383       .  S
C719        F728   1.384       .  S
C719        F729   1.385       .  S
C733        C734   1.400       .  A
C733        C738   1.412       .  A
C733        H743   1.083       .  S
C734        C739   1.488       .  S
C734        C735   1.413       .  A
C735        C740   1.520       .  S
C735        C736   1.406       .  A
C736        C737   1.409       .  A
C736        H741   1.082       .  S
C737        C738   1.429       .  A
C738        C742   1.520       .  S
C739        C744   1.406       .  A
C739        C748   1.395       .  A
C740        F756   1.382       .  S
C740        F757   1.382       .  S
C740        F758   1.384       .  S
C742        F753   1.383       .  S
C742        F754   1.385       .  S
C742        F755   1.383       .  S
C744        C749   1.523       .  S
C744        C745   1.403       .  A
C745        C746   1.424       .  A
C745        H750   1.071       .  S
C746        C747   1.453       .  A
C747        C751   1.534       .  S
C747        C748   1.414       .  A
C748        H752   1.082       .  S
C749        F762   1.385       .  S
C749        F763   1.383       .  S
C749        F764   1.382       .  S
C751        F759   1.385       .  S
C751        F760   1.376       .  S
C751        F761   1.380       .  S
C765        C766   1.402       .  A
C765        C770   1.404       .  A
C765        H775   1.083       .  S
C766        C771   1.484       .  S
C766        C767   1.416       .  A
C767        C772   1.518       .  S
C767        C768   1.409       .  A
C768        C769   1.402       .  A
C768        H773   1.083       .  S
C769        C770   1.416       .  A
C770        C774   1.520       .  S
C771        C776   1.406       .  A
C771        C780   1.390       .  A
C772        F788   1.382       .  S
C772        F789   1.381       .  S
C772        F790   1.384       .  S
C774        F785   1.384       .  S
C774        F786   1.382       .  S
C774        F787   1.383       .  S
C776        C781   1.520       .  S
C776        C777   1.406       .  A
C777        C778   1.423       .  A
C777        H782   1.074       .  S
C778        C779   1.454       .  A
C779        C783   1.532       .  S
C779        C780   1.408       .  A
C780        H784   1.086       .  S
C781        F794   1.385       .  S
C781        F795   1.382       .  S
C781        F796   1.382       .  S
C783        F791   1.387       .  S
C783        F792   1.367       .  S
C783        F793   1.381       .  S
C797        C798   1.391       .  A
C797        C802   1.410       .  A
C797        H807   1.082       .  S
C798        C803   1.477       .  S
C798        C799   1.405       .  A
C799        C804   1.523       .  S
C799        C800   1.401       .  A
C800        C801   1.422       .  A
C800        H805   1.072       .  S
C801        C802   1.451       .  A
C802        C806   1.532       .  S
C803        C808   1.410       .  A
C803        C812   1.398       .  A
C804        F820   1.382       .  S
C804        F821   1.382       .  S
C804        F822   1.384       .  S
C806        F817   1.379       .  S
C806        F818   1.385       .  S
C806        F819   1.374       .  S
C808        C813   1.521       .  S
C808        C809   1.402       .  A
C809        C810   1.409       .  A
C809        H814   1.082       .  S
C810        C811   1.427       .  A
C811        C815   1.521       .  S
C811        C812   1.406       .  A
C812        H816   1.083       .  S
C813        F826   1.384       .  S
C813        F827   1.382       .  S
C813        F828   1.382       .  S
C815        F823   1.385       .  S
C815        F824   1.381       .  S
C815        F825   1.383       .  S
C829        C830   1.391       .  A
C829        C834   1.413       .  A
C829        H839   1.083       .  S
C830        C835   1.484       .  S
C830        C831   1.404       .  A
C831        C836   1.521       .  S
C831        C832   1.403       .  A
C832        C833   1.427       .  A
C832        H837   1.074       .  S
C833        C834   1.456       .  A
C834        C838   1.534       .  S
C835        C840   1.417       .  A
C835        C844   1.403       .  A
C836        F852   1.382       .  S
C836        F853   1.383       .  S
C836        F854   1.384       .  S
C838        F849   1.385       .  S
C838        F850   1.378       .  S
C838        F851   1.368       .  S
C840        C845   1.520       .  S
C840        C841   1.406       .  A
C841        C842   1.401       .  A
C841        H846   1.083       .  S
C842        C843   1.412       .  A
C843        C847   1.516       .  S
C843        C844   1.406       .  A
C844        H848   1.083       .  S
C845        F858   1.384       .  S
C845        F859   1.382       .  S
C845        F860   1.383       .  S
C847        F855   1.380       .  S
C847        F856   1.383       .  S
C847        F857   1.384       .  S
C861        C862   1.390       .  A
C861        C866   1.411       .  A
C861        H871   1.083       .  S
C862        C867   1.482       .  S
C862        C863   1.400       .  A
C863        C868   1.522       .  S
C863        C864   1.403       .  A
C864        C865   1.433       .  A
C864        H869   1.076       .  S
C865        C866   1.458       .  A
C866        C870   1.537       .  S
C867        C872   1.413       .  A
C867        C876   1.403       .  A
C868        F884   1.383       .  S
C868        F885   1.381       .  S
C868        F886   1.385       .  S
C870        F881   1.372       .  S
C870        F882   1.386       .  S
C870        F883   1.374       .  S
C872        C877   1.521       .  S
C872        C873   1.404       .  A
C873        C874   1.406       .  A
C873        H878   1.083       .  S
C874        C875   1.420       .  A
C875        C879   1.519       .  S
C875        C876   1.409       .  A
C876        H880   1.083       .  S
C877        F890   1.384       .  S
C877        F891   1.383       .  S
C877        F892   1.381       .  S
C879        F887   1.382       .  S
C879        F888   1.383       .  S
C879        F889   1.385       .  S
C893        C894   1.397       .  A
C893        C898   1.402       .  A
C893        H903   1.084       .  S
C894        C899   1.479       .  S
C894        C895   1.415       .  A
C895        C900   1.518       .  S
C895        C896   1.407       .  A
C896        C897   1.404       .  A
C896        H901   1.083       .  S
C897        C898   1.424       .  A
C898        C902   1.522       .  S
C899        C904   1.407       .  A
C899        C908   1.391       .  A
C900        F916   1.383       .  S
C900        F917   1.381       .  S
C900        F918   1.385       .  S
C902        F913   1.385       .  S
C902        F914   1.383       .  S
C902        F915   1.383       .  S
C904        C909   1.520       .  S
C904        C905   1.408       .  A
C905        C906   1.425       .  A
C905        H910   1.079       .  S
C906        C907   1.456       .  A
C907        C911   1.533       .  S
C907        C908   1.406       .  A
C908        H912   1.086       .  S
C909        F922   1.384       .  S
C909        F923   1.382       .  S
C909        F924   1.381       .  S
C911        F919   1.367       .  S
C911        F920   1.381       .  S
C911        F921   1.387       .  S
C925        C926   1.402       .  A
C925        C930   1.403       .  A
C925        H935   1.083       .  S
C926        C931   1.484       .  S
C926        C927   1.417       .  A
C927        C932   1.518       .  S
C927        C928   1.410       .  A
C928        C929   1.402       .  A
C928        H933   1.083       .  S
C929        C930   1.414       .  A
C930        C934   1.518       .  S
C931        C936   1.405       .  A
C931        C940   1.394       .  A
C932        F948   1.382       .  S
C932        F949   1.382       .  S
C932        F950   1.385       .  S
C934        F945   1.383       .  S
C934        F946   1.385       .  S
C934        F947   1.382       .  S
C936        C941   1.521       .  S
C936        C937   1.402       .  A
C937        C938   1.426       .  A
C937        H942   1.076       .  S
C938        C939   1.450       .  A
C939        C943   1.530       .  S
C939        C940   1.411       .  A
C940        H944   1.086       .  S
C941        F954   1.385       .  S
C941        F955   1.382       .  S
C941        F956   1.382       .  S
C943        F951   1.387       .  S
C943        F952   1.370       .  S
C943        F953   1.381       .  S
C957        C958   1.399       .  A
C957        C962   1.404       .  A
C957        H967   1.084       .  S
C958        C963   1.475       .  S
C958        C959   1.412       .  A
C959        C964   1.522       .  S
C959        C960   1.405       .  A
C960        C961   1.408       .  A
C960        H965   1.082       .  S
C961        C962   1.422       .  A
C962        C966   1.520       .  S
C963        C968   1.402       .  A
C963        C972   1.390       .  A
C964        F980   1.383       .  S
C964        F981   1.381       .  S
C964        F982   1.384       .  S
C966        F977   1.382       .  S
C966        F978   1.385       .  S
C966        F979   1.384       .  S
C968        C973   1.523       .  S
C968        C969   1.402       .  A
C969        C970   1.424       .  A
C969        H974   1.063       .  S
C970        C971   1.456       .  A
C971        C975   1.532       .  S
C971        C972   1.409       .  A
C972        H976   1.080       .  S
C973        F986   1.384       .  S
C973        F987   1.383       .  S
C973        F988   1.381       .  S
C975        F983   1.386       .  S
C975        F984   1.373       .  S
C975        F985   1.379       .  S
C989        C990   1.400       .  A
C989        C994   1.408       .  A
C989        H999   1.083       .  S
C990        C995   1.480       .  S
C990        C991   1.409       .  A
C991        C996   1.521       .  S
C991        C992   1.406       .  A
C992        C993   1.412       .  A
C992        H997   1.082       .  S
C993        C994   1.426       .  A
C994        C998   1.520       .  S
C995       C1000   1.407       .  A
C995       C1004   1.393       .  A
C996       F1012   1.382       .  S
C996       F1013   1.381       .  S
C996       F1014   1.384       .  S
C998       F1009   1.383       .  S
C998       F1010   1.385       .  S
C998       F1011   1.384       .  S
C1000      C1005   1.523       .  S
C1000      C1001   1.404       .  A
C1001      C1002   1.420       .  A
C1001      H1006   1.075       .  S
C1002      C1003   1.450       .  A
C1003      C1007   1.528       .  S
C1003      C1004   1.412       .  A
C1004      H1008   1.083       .  S
C1005      F1018   1.385       .  S
C1005      F1019   1.383       .  S
C1005      F1020   1.380       .  S
C1007      F1015   1.385       .  S
C1007      F1016   1.370       .  S
C1007      F1017   1.379       .  S
C1021      C1022   1.404       .  A
C1021      C1026   1.409       .  A
C1021      H1031   1.083       .  S
C1022      C1027   1.487       .  S
C1022      C1023   1.417       .  A
C1023      C1028   1.521       .  S
C1023      C1024   1.407       .  A
C1024      C1025   1.402       .  A
C1024      H1029   1.083       .  S
C1025      C1026   1.416       .  A
C1026      C1030   1.518       .  S
C1027      C1032   1.398       .  A
C1027      C1036   1.389       .  A
C1028      F1044   1.382       .  S
C1028      F1045   1.381       .  S
C1028      F1046   1.384       .  S
C1030      F1041   1.384       .  S
C1030      F1042   1.382       .  S
C1030      F1043   1.384       .  S
C1032      C1037   1.522       .  S
C1032      C1033   1.405       .  A
C1033      C1034   1.433       .  A
C1033      H1038   1.070       .  S
C1034      C1035   1.465       .  A
C1035      C1039   1.542       .  S
C1035      C1036   1.416       .  A
C1036      H1040   1.082       .  S
C1037      F1050   1.385       .  S
C1037      F1051   1.383       .  S
C1037      F1052   1.381       .  S
C1039      F1047   1.386       .  S
C1039      F1048   1.372       .  S
C1039      F1049   1.373       .  S
C1053      C1054   1.391       .  A
C1053      C1058   1.409       .  A
C1053      H1063   1.083       .  S
C1054      C1059   1.479       .  S
C1054      C1055   1.403       .  A
C1055      C1060   1.522       .  S
C1055      C1056   1.404       .  A
C1056      C1057   1.427       .  A
C1056      H1061   1.074       .  S
C1057      C1058   1.455       .  A
C1058      C1062   1.537       .  S
C1059      C1064   1.414       .  A
C1059      C1068   1.401       .  A
C1060      F1076   1.383       .  S
C1060      F1077   1.381       .  S
C1060      F1078   1.385       .  S
C1062      F1073   1.385       .  S
C1062      F1074   1.380       .  S
C1062      F1075   1.374       .  S
C1064      C1069   1.521       .  S
C1064      C1065   1.406       .  A
C1065      C1066   1.404       .  A
C1065      H1070   1.083       .  S
C1066      C1067   1.416       .  A
C1067      C1071   1.518       .  S
C1067      C1068   1.405       .  A
C1068      H1072   1.083       .  S
C1069      F1082   1.384       .  S
C1069      F1083   1.383       .  S
C1069      F1084   1.381       .  S
C1071      F1079   1.383       .  S
C1071      F1080   1.383       .  S
C1071      F1081   1.385       .  S
C1085      C1086   1.401       .  A
C1085      C1090   1.404       .  A
C1085      H1095   1.083       .  S
C1086      C1091   1.484       .  S
C1086      C1087   1.416       .  A
C1087      C1092   1.518       .  S
C1087      C1088   1.409       .  A
C1088      C1089   1.404       .  A
C1088      H1093   1.083       .  S
C1089      C1090   1.416       .  A
C1090      C1094   1.519       .  S
C1091      C1096   1.407       .  A
C1091      C1100   1.391       .  A
C1092      F1108   1.383       .  S
C1092      F1109   1.382       .  S
C1092      F1110   1.384       .  S
C1094      F1105   1.384       .  S
C1094      F1106   1.382       .  S
C1094      F1107   1.384       .  S
C1096      C1101   1.520       .  S
C1096      C1097   1.408       .  A
C1097      C1098   1.421       .  A
C1097      H1102   1.073       .  S
C1098      C1099   1.452       .  A
C1099      C1103   1.531       .  S
C1099      C1100   1.409       .  A
C1100      H1104   1.086       .  S
C1101      F1114   1.384       .  S
C1101      F1115   1.382       .  S
C1101      F1116   1.382       .  S
C1103      F1111   1.387       .  S
C1103      F1112   1.370       .  S
C1103      F1113   1.381       .  S
C1117      C1118   1.400       .  A
C1117      C1122   1.402       .  A
C1117      H1127   1.083       .  S
C1118      C1123   1.475       .  S
C1118      C1119   1.414       .  A
C1119      C1124   1.518       .  S
C1119      C1120   1.403       .  A
C1120      C1121   1.400       .  A
C1120      H1125   1.083       .  S
C1121      C1122   1.418       .  A
C1122      C1126   1.520       .  S
C1123      C1128   1.405       .  A
C1123      C1132   1.392       .  A
C1124      F1140   1.383       .  S
C1124      F1141   1.380       .  S
C1124      F1142   1.385       .  S
C1126      F1137   1.385       .  S
C1126      F1138   1.382       .  S
C1126      F1139   1.383       .  S
C1128      C1133   1.521       .  S
C1128      C1129   1.404       .  A
C1129      C1130   1.421       .  A
C1129      H1134   1.076       .  S
C1130      C1131   1.450       .  A
C1131      C1135   1.529       .  S
C1131      C1132   1.407       .  A
C1132      H1136   1.086       .  S
C1133      F1146   1.385       .  S
C1133      F1147   1.382       .  S
C1133      F1148   1.382       .  S
C1135      F1143   1.387       .  S
C1135      F1144   1.371       .  S
C1135      F1145   1.380       .  S
C1149      C1150   1.388       .  A
C1149      C1154   1.410       .  A
C1149      H1159   1.083       .  S
C1150      C1155   1.481       .  S
C1150      C1151   1.401       .  A
C1151      C1156   1.519       .  S
C1151      C1152   1.405       .  A
C1152      C1153   1.430       .  A
C1152      H1157   1.075       .  S
C1153      C1154   1.459       .  A
C1154      C1158   1.534       .  S
C1155      C1160   1.415       .  A
C1155      C1164   1.403       .  A
C1156      F1172   1.383       .  S
C1156      F1173   1.382       .  S
C1156      F1174   1.384       .  S
C1158      F1169   1.386       .  S
C1158      F1170   1.374       .  S
C1158      F1171   1.372       .  S
C1160      C1165   1.520       .  S
C1160      C1161   1.403       .  A
C1161      C1162   1.402       .  A
C1161      H1166   1.083       .  S
C1162      C1163   1.415       .  A
C1163      C1167   1.517       .  S
C1163      C1164   1.409       .  A
C1164      H1168   1.083       .  S
C1165      F1178   1.385       .  S
C1165      F1179   1.382       .  S
C1165      F1180   1.382       .  S
C1167      F1175   1.382       .  S
C1167      F1176   1.383       .  S
C1167      F1177   1.385       .  S
C1181      C1182   1.391       .  A
C1181      C1186   1.410       .  A
C1181      H1191   1.083       .  S
C1182      C1187   1.485       .  S
C1182      C1183   1.405       .  A
C1183      C1188   1.521       .  S
C1183      C1184   1.407       .  A
C1184      C1185   1.428       .  A
C1184      H1189   1.072       .  S
C1185      C1186   1.452       .  A
C1186      C1190   1.533       .  S
C1187      C1192   1.417       .  A
C1187      C1196   1.401       .  A
C1188      F1204   1.382       .  S
C1188      F1205   1.381       .  S
C1188      F1206   1.384       .  S
C1190      F1201   1.380       .  S
C1190      F1202   1.386       .  S
C1190      F1203   1.375       .  S
C1192      C1197   1.520       .  S
C1192      C1193   1.410       .  A
C1193      C1194   1.405       .  A
C1193      H1198   1.083       .  S
C1194      C1195   1.419       .  A
C1195      C1199   1.520       .  S
C1195      C1196   1.405       .  A
C1196      H1200   1.083       .  S
C1197      F1210   1.385       .  S
C1197      F1211   1.382       .  S
C1197      F1212   1.382       .  S
C1199      F1207   1.385       .  S
C1199      F1208   1.384       .  S
C1199      F1209   1.382       .  S
