geometry optimzed in LAMMPS
_audit_creation_date              2020-11-30 
_audit_creation_method            'lammps2cif' 
_symmetry_space_group_name_H-M    'P1' 
_symmetry_Int_Tables_number       1 
_symmetry_cell_setting            triclinic 
loop_ 
_symmetry_equiv_pos_as_xyz 
  x,y,z 
_cell_length_a                    25.95285587 
_cell_length_b                    25.996080395130665 
_cell_length_c                    25.998889883198743 
_cell_angle_alpha                 89.89033734567042 
_cell_angle_beta                  90.05360917565847 
_cell_angle_gamma                 89.98530397318171 
loop_ 
_atom_site_label 
_atom_site_type_symbol 
_atom_site_fract_x 
_atom_site_fract_y 
_atom_site_fract_z 
_atom_site_charge 
N1          N  0.99382634  0.50156074  0.42032326    -0.36800
N2          N  0.00168773  0.58080948  0.49965265    -0.57400
N3          N  0.99433970  0.50178299  0.57845135    -0.36800
N4          N  0.99300586  0.42225813  0.49914024    -0.57400
C5          C  0.00650593  0.54293908  0.39126843     0.26800
C6          C  0.00130969  0.45909227  0.39108197     0.26800
C7          C  0.00538544  0.54314293  0.60805025     0.26800
C8          C  0.00203885  0.45927999  0.60763236     0.26800
C9          C  0.99861506  0.61168809  0.45790971     0.35400
C10         C  0.99756288  0.61178586  0.54115069     0.35400
C11         C  0.98235252  0.39274719  0.45772076     0.35400
C12         C  0.98368712  0.39280115  0.54098487     0.35400
C13         C  0.02159899  0.52666242  0.34282138    -0.22100
C14         C  0.01865708  0.47383394  0.34279612    -0.22100
C15         C  0.01910643  0.52666473  0.65697392    -0.22100
C16         C  0.01743221  0.47383530  0.65656236    -0.22100
C17         C  0.99352228  0.66258346  0.47296368    -0.23200
C18         C  0.99303351  0.66266732  0.52564859    -0.23200
C19         C  0.96601501  0.34440860  0.47342443    -0.23200
C20         C  0.96717785  0.34435739  0.52616011    -0.23200
C21         C  0.00298345  0.59515565  0.40636509    -0.18500
C22         C  0.99079144  0.40759302  0.40601201    -0.18500
C23         C  0.99286047  0.40783762  0.59233909    -0.18500
C24         C  0.00124000  0.59536020  0.59288268    -0.18500
H25         H  0.03366208  0.55040646  0.31077969     0.14400
H26         H  0.02810740  0.44916969  0.31068006     0.14400
H27         H  0.02922876  0.55007812  0.68980520     0.14400
H28         H  0.02601097  0.44900451  0.68891675     0.14400
H29         H  0.99106080  0.69630011  0.44859550     0.12700
H30         H  0.99043831  0.69650891  0.54968193     0.12700
H31         H  0.95488247  0.31228981  0.44944762     0.12700
H32         H  0.95719080  0.31225632  0.55078288     0.12700
H33         H  0.97582065  0.50266286  0.45590781     0.26000
H34         H  0.97725042  0.50268022  0.54240528     0.25900
O35         O  0.99775867  0.14633130  0.08433200    -0.80300
O36         O  0.00399561  0.85453170  0.08470400    -0.81900
O37         O  0.91743649  0.00052615  0.14531322    -0.78900
O38         O  0.08674391  0.00284141  0.14489442    -0.77300
O39         O  0.14872682  0.99963975  0.08246380    -0.79100
O40         O  0.85460103  0.99983038  0.08361012    -0.80000
O41         O  0.00518949  0.91689639  0.14664438    -0.81300
O42         O  0.99874889  0.08407963  0.14650421    -0.81600
Eu43       Eu  0.00187227  0.00048509  0.10302070     2.39200
O44         O  0.05427722  0.94831731  0.05108184    -0.89100
O45         O  0.94858392  0.05168235  0.05085058    -0.92700
C46         C  0.99731745  0.13153085  0.13188120     1.01900
C47         C  0.00532155  0.86947839  0.13207697     1.01800
C48         C  0.86983999  0.00050183  0.13087364     1.01700
C49         C  0.13413571  0.00154413  0.12989601     0.99600
H50         H  0.92814970  0.92555355  0.07341154     0.29300
O51         O  0.94930998  0.94729596  0.05168863    -1.01500
H52         H  0.07497612  0.07520705  0.07208899     0.29300
O53         O  0.05361636  0.05349850  0.05087224    -1.04100
O54         O  0.00476959  0.85279847  0.91528128    -0.81300
O55         O  0.99767764  0.14702265  0.91403451    -0.80800
O56         O  0.85499467  0.91372078  0.99844706    -0.79300
O57         O  0.14957945  0.91722835  0.99649568    -0.82600
O58         O  0.14717350  0.08535277  0.99625429    -0.80500
O59         O  0.85341311  0.08355758  0.00258245    -0.79100
O60         O  0.91546036  0.99951250  0.85256821    -0.80600
O61         O  0.08495398  0.00137686  0.85152414    -0.82600
O62         O  0.85319627  0.99821089  0.91479529    -0.79300
O63         O  0.14724016  0.00267291  0.91371734    -0.82000
O64         O  0.91784641  0.85209029  0.99756069    -0.77700
O65         O  0.91496790  0.14675605  0.99983869    -0.77700
O66         O  0.08458647  0.14730238  0.99592988    -0.77400
O67         O  0.08738118  0.85499073  0.00043961    -0.80900
O68         O  0.00044804  0.91517532  0.85309541    -0.80300
O69         O  0.99997049  0.08480701  0.85196320    -0.78600
Eu70       Eu  0.00206198  0.89573028  0.99931693     2.39800
Eu71       Eu  0.99987150  0.10485498  0.99883076     2.39600
Eu72       Eu  0.89635496  0.99899725  0.99910312     2.38400
Eu73       Eu  0.10547621  0.00091883  0.99827926     2.39900
Eu74       Eu  0.00040700  0.00020525  0.89446581     2.39800
O75         O  0.05229132  0.05287445  0.94650225    -0.93100
O76         O  0.94898357  0.94726134  0.94690102    -0.91900
C77         C  0.00293960  0.86778265  0.86793925     1.02100
C78         C  0.99857715  0.13224901  0.86661427     1.00800
C79         C  0.87013164  0.86634910  0.99787236     1.00200
C80         C  0.13480008  0.86984044  0.99850575     1.02200
C81         C  0.13217793  0.13266774  0.99527599     1.01200
C82         C  0.86782285  0.13111480  0.00207893     1.00000
C83         C  0.86796913  0.99866452  0.86735390     1.00100
C84         C  0.13251141  0.00233529  0.86629444     1.02700
H85         H  0.92578624  0.07326975  0.92548393     0.30000
O86         O  0.94774101  0.05205106  0.94675882    -1.05200
H87         H  0.07516957  0.92711700  0.92486358     0.32100
O88         O  0.05347531  0.94828677  0.94640713    -1.07800
N89         N  0.50179029  0.00948715  0.41968799    -0.36800
N90         N  0.58080230  0.00468982  0.49907984    -0.57400
N91         N  0.50102708  0.00712541  0.57733577    -0.36800
N92         N  0.42195968  0.00686642  0.49803443    -0.57400
C93         C  0.54386403  0.99905613  0.39080750     0.26800
C94         C  0.45981058  0.00005509  0.39023712     0.26800
C95         C  0.54280973  0.99558208  0.60634425     0.26800
C96         C  0.45885629  0.99583969  0.60574207     0.26800
C97         C  0.61098101  0.01375212  0.45772311     0.35400
C98         C  0.61046811  0.01314690  0.54098776     0.35400
C99         C  0.39221089  0.01620606  0.45633636     0.35400
C100        C  0.39170862  0.01409862  0.53969772     0.35400
C101        C  0.52843737  0.98310383  0.34230355    -0.22100
C102        C  0.47549658  0.98411795  0.34180252    -0.22100
C103        C  0.52695834  0.97740265  0.65395334    -0.22100
C104        C  0.47405441  0.97712906  0.65339714    -0.22100
C105        C  0.66006979  0.02773876  0.47345293    -0.23200
C106        C  0.65985295  0.02697227  0.52618114    -0.23200
C107        C  0.34266689  0.02900430  0.47160899    -0.23200
C108        C  0.34244467  0.02799841  0.52439701    -0.23200
C109        C  0.59574534  0.00656536  0.40601107    -0.18500
C110        C  0.40796493  0.00879722  0.40481843    -0.18500
C111        C  0.40709807  0.00495799  0.59113279    -0.18500
C112        C  0.59465536  0.00451425  0.59223588    -0.18500
H113        H  0.55275261  0.97245562  0.31024747     0.14400
H114        H  0.45150253  0.97474134  0.30910011     0.14400
H115        H  0.55081952  0.96595576  0.68612575     0.14400
H116        H  0.44959169  0.96509325  0.68488422     0.14400
H117        H  0.69281739  0.03718513  0.44949918     0.12700
H118        H  0.69252868  0.03524352  0.55066816     0.12700
H119        H  0.30980223  0.03739920  0.44737371     0.12700
H120        H  0.30951194  0.03587856  0.54863465     0.12700
H121        H  0.50182628  0.02766452  0.45519624     0.26000
H122        H  0.50131320  0.02727104  0.54280678     0.25900
N123        N  0.49789070  0.42190127  0.00828611    -0.36800
N124        N  0.41975570  0.50143822  0.00313381    -0.57400
N125        N  0.49944661  0.57936731  0.01456170    -0.36800
N126        N  0.57755445  0.49957628  0.01503800    -0.57400
C127        C  0.45682469  0.39492927  0.99096983     0.26800
C128        C  0.54048046  0.39356961  0.99827526     0.26800
C129        C  0.45850357  0.60842868  0.00056852     0.26800
C130        C  0.54234765  0.60763793  0.00566003     0.26800
C131        C  0.38880309  0.45989522  0.00720142     0.35400
C132        C  0.38975144  0.54288692  0.01196811     0.35400
C133        C  0.60578297  0.45731957  0.02635647     0.35400
C134        C  0.60689336  0.54067780  0.02751575     0.35400
C135        C  0.47339931  0.34905843  0.96954180    -0.22100
C136        C  0.52622259  0.34831122  0.97387045    -0.22100
C137        C  0.47549918  0.65594703  0.98318662    -0.22100
C138        C  0.52841828  0.65529659  0.98601381    -0.22100
C139        C  0.33883508  0.47496277  0.01844922    -0.23200
C140        C  0.33937943  0.52765554  0.02124278    -0.23200
C141        C  0.65296587  0.47178921  0.04688511    -0.23200
C142        C  0.65384092  0.52457475  0.04712708    -0.23200
C143        C  0.40462468  0.40894797  0.99745362    -0.18500
C144        C  0.59137736  0.40636509  0.01342484    -0.18500
C145        C  0.59343306  0.59236410  0.01728631    -0.18500
C146        C  0.40624801  0.59425611  0.00639236    -0.18500
H147        H  0.44981009  0.31907127  0.95284915     0.14400
H148        H  0.55116400  0.31763477  0.96086192     0.14400
H149        H  0.45231464  0.68794371  0.96997038     0.14400
H150        H  0.55366638  0.68659926  0.97516271     0.14400
H151        H  0.30530817  0.45068801  0.02326433     0.12700
H152        H  0.30622840  0.55191641  0.02819052     0.12700
H153        H  0.68405432  0.44703307  0.05945174     0.12700
H154        H  0.68561411  0.54836831  0.05978646     0.12700
H155        H  0.49640351  0.45459530  0.03124113     0.26000
H156        H  0.49777986  0.54459376  0.03433266     0.25900
C157        C  0.71484314  0.66389429  0.97829394    -0.11000
C158        C  0.71329112  0.70736310  0.01034220     0.06100
C159        C  0.67248545  0.71219968  0.04564780    -0.09800
C160        C  0.63389605  0.67467100  0.04843163    -0.11400
C161        C  0.63520492  0.63172524  0.01579457    -0.01200
C162        C  0.67608908  0.62662591  0.98084211    -0.10300
C163        C  0.75351372  0.74795774  0.00619410     0.06100
H164        H  0.67058706  0.74489069  0.07132528     0.08000
H165        H  0.60283119  0.67919396  0.07584712     0.11500
H166        H  0.67763130  0.59395517  0.95509488     0.11800
H167        H  0.74539564  0.65931408  0.95034541     0.08100
C168        C  0.80571950  0.73487007  0.00007439    -0.11000
C169        C  0.84346309  0.77317979  0.99648368    -0.10300
C170        C  0.82990484  0.82556186  0.99882896    -0.01200
C171        C  0.77751113  0.83854079  0.00396108    -0.11400
C172        C  0.73986527  0.80023713  0.00779002    -0.09800
H173        H  0.81751309  0.69492629  0.99901051     0.08100
H174        H  0.88334930  0.76165437  0.99244135     0.11800
H175        H  0.76548827  0.87838827  0.00565278     0.11500
H176        H  0.69989792  0.81157473  0.01156855     0.08100
C177        C  0.78390444  0.24433510  0.96668775    -0.11000
C178        C  0.74988627  0.24724169  0.00893019     0.06100
C179        C  0.75541874  0.21072247  0.04877272    -0.09800
C180        C  0.79324110  0.17238481  0.04605626    -0.11400
C181        C  0.82733773  0.17064723  0.00434160    -0.01200
C182        C  0.82272943  0.20709483  0.96493442    -0.10300
C183        C  0.70918345  0.28811638  0.01113178     0.06100
H184        H  0.73111842  0.21195276  0.08251734     0.08000
H185        H  0.79664941  0.14471025  0.07709172     0.11500
H186        H  0.84852878  0.20602606  0.93220855     0.11800
H187        H  0.78037373  0.27031853  0.93435290     0.08100
C188        C  0.71655548  0.33565477  0.98608474    -0.11000
C189        C  0.67799969  0.37308010  0.98588085    -0.10300
C190        C  0.63185072  0.36537957  0.01287180    -0.01200
C191        C  0.62454070  0.31856401  0.03897831    -0.11400
C192        C  0.66236161  0.28011032  0.03750961    -0.09800
H193        H  0.75228812  0.34447062  0.96663651     0.08100
H194        H  0.68450959  0.40856252  0.96497801     0.11800
H195        H  0.58924191  0.31157187  0.06006403     0.11500
H196        H  0.65434893  0.24394246  0.05650437     0.08100
C197        C  0.31226191  0.69319067  0.95567862    -0.11000
C198        C  0.28975375  0.71090159  0.00139456     0.06100
C199        C  0.30553658  0.69004986  0.04868642    -0.09800
C200        C  0.34408078  0.65261508  0.05031255    -0.11400
C201        C  0.36653313  0.63498376  0.00460960    -0.01200
C202        C  0.35009897  0.65501034  0.95725158    -0.10300
C203        C  0.25009260  0.75140221  0.99991012     0.06100
H204        H  0.28854306  0.70334278  0.08430487     0.08000
H205        H  0.35622699  0.63709104  0.08707032     0.11500
H206        H  0.36678894  0.64119310  0.92169352     0.11800
H207        H  0.30012764  0.70856292  0.91885878     0.08100
C208        C  0.26079016  0.79923158  0.97722793    -0.11000
C209        C  0.22360287  0.83817762  0.97721532    -0.10300
C210        C  0.17477020  0.82935334  0.99888105    -0.01200
C211        C  0.16409400  0.78110639  0.02094705    -0.11400
C212        C  0.20161474  0.74266031  0.02192293    -0.09800
H213        H  0.29818805  0.80661518  0.96027832     0.08100
H214        H  0.23279684  0.87490379  0.95975900     0.11800
H215        H  0.12690064  0.77330784  0.03813422     0.11500
H216        H  0.19271571  0.70590319  0.03948859     0.08100
C217        C  0.26265958  0.19797075  0.00057717    -0.11000
C218        C  0.24956764  0.24957092  0.99127548     0.06100
C219        C  0.19773327  0.26243127  0.98257326    -0.09800
C220        C  0.15959274  0.22453162  0.98384010    -0.11400
C221        C  0.17256836  0.17288142  0.99344727    -0.01200
C222        C  0.22462944  0.15999686  0.00143853    -0.10300
C223        C  0.28971385  0.29003911  0.99191034     0.06100
H224        H  0.18656802  0.30201307  0.97580930     0.08000
H225        H  0.11993516  0.23576120  0.97732645     0.11500
H226        H  0.23604724  0.12060306  0.00886763     0.11800
H227        H  0.30241732  0.18695983  0.00692325     0.08100
C228        C  0.32723091  0.29046838  0.03089725    -0.11000
C229        C  0.36450197  0.32910308  0.03236121    -0.10300
C230        C  0.36503890  0.36788639  0.99484659    -0.01200
C231        C  0.32788864  0.36750240  0.95559854    -0.11400
C232        C  0.29039953  0.32889271  0.95420242    -0.09800
H233        H  0.32715619  0.26141251  0.06080086     0.08100
H234        H  0.39276726  0.32909587  0.06304565     0.11800
H235        H  0.32796598  0.39710211  0.92622305     0.11500
H236        H  0.26219924  0.32912095  0.92347320     0.08100
C237        C  0.68883294  0.95499013  0.69209675    -0.11000
C238        C  0.71074781  0.00091565  0.71001095     0.06100
C239        C  0.69432593  0.04805092  0.68931072    -0.09800
C240        C  0.65606288  0.04926210  0.65143675    -0.11400
C241        C  0.63461516  0.00328589  0.63306457    -0.01200
C242        C  0.65142952  0.95613451  0.65338938    -0.10300
C243        C  0.75096280  0.99967480  0.75006945     0.06100
H244        H  0.71078634  0.08383112  0.70288145     0.08000
H245        H  0.64340897  0.08592509  0.63610440     0.11500
H246        H  0.63529536  0.92035696  0.63943698     0.11800
H247        H  0.70125168  0.91831332  0.70758108     0.08100
C248        C  0.73963333  0.98123552  0.79949529    -0.11000
C249        C  0.77752197  0.98118773  0.83780668    -0.10300
C250        C  0.82768840  0.99857295  0.82693316    -0.01200
C251        C  0.83901878  0.01615794  0.77698932    -0.11400
C252        C  0.80082222  0.01718964  0.73906321    -0.09800
H253        H  0.70126080  0.96758590  0.80855572     0.08100
H254        H  0.76768148  0.96713688  0.87578848     0.11800
H255        H  0.87722872  0.02988102  0.76741464     0.11500
H256        H  0.81021189  0.03131299  0.70098111     0.08100
C257        C  0.26386043  0.00814656  0.80235290    -0.11000
C258        C  0.25113398  0.00170524  0.75024789     0.06100
C259        C  0.19909754  0.99586637  0.73649109    -0.09800
C260        C  0.16056064  0.99643493  0.77400256    -0.11400
C261        C  0.17321610  0.00262032  0.82622605    -0.01200
C262        C  0.22538151  0.00847593  0.83992099    -0.10300
C263        C  0.29182336  0.00164561  0.71019329     0.06100
H264        H  0.18810873  0.99153478  0.69654211     0.08000
H265        H  0.12086343  0.99182604  0.76202091     0.11500
H266        H  0.23661933  0.01330677  0.87974246     0.11800
H267        H  0.30367782  0.01228758  0.81413744     0.08100
C268        C  0.33212669  0.03772793  0.71179860    -0.11000
C269        C  0.36924558  0.03896977  0.67292804    -0.10300
C270        C  0.36706676  0.00385893  0.63203545    -0.01200
C271        C  0.32750365  0.96711040  0.63086832    -0.11400
C272        C  0.29008065  0.96615217  0.66947493    -0.09800
H273        H  0.33429211  0.06572325  0.74251094     0.08100
H274        H  0.39967910  0.06743037  0.67457286     0.11800
H275        H  0.32565740  0.93923343  0.60001288     0.11500
H276        H  0.25995998  0.93739034  0.66772807     0.08100
C277        C  0.30779518  0.05371804  0.30851491    -0.11000
C278        C  0.29174686  0.00691485  0.28687498     0.06100
C279        C  0.31398831  0.96078967  0.30421155    -0.09800
C280        C  0.35134597  0.96139680  0.34296429    -0.11400
C281        C  0.36779914  0.00821272  0.36411889    -0.01200
C282        C  0.34595875  0.05439177  0.34653841    -0.10300
C283        C  0.25166315  0.00605539  0.24646201     0.06100
H284        H  0.30186945  0.92429217  0.28822945     0.08000
H285        H  0.36775493  0.92544302  0.35628830     0.11500
H286        H  0.35833257  0.09081318  0.36249698     0.11800
H287        H  0.29123694  0.08970790  0.29548100     0.08100
C288        C  0.20353879  0.02906088  0.25509349    -0.11000
C289        C  0.16511896  0.02700806  0.21741613    -0.10300
C290        C  0.17458000  0.00292818  0.16997381    -0.01200
C291        C  0.22310290  0.98062888  0.16111188    -0.11400
C292        C  0.26110521  0.98167771  0.19927459    -0.09800
H293        H  0.19546743  0.04790673  0.29132610     0.08100
H294        H  0.12820901  0.04484508  0.22513201     0.11800
H295        H  0.23140313  0.96174760  0.12495295     0.11500
H296        H  0.29809794  0.96389467  0.19183371     0.08100
C297        C  0.74060059  0.01276667  0.19725171    -0.11000
C298        C  0.75376124  0.00367324  0.24891989     0.06100
C299        C  0.80543051  0.99324064  0.26139652    -0.15900
C300        C  0.84309992  0.99215667  0.22309513    -0.11400
C301        C  0.82991318  0.00134021  0.17142810    -0.01200
C302        C  0.77821826  0.01159032  0.15893857    -0.10300
C303        C  0.71361838  0.00480305  0.28952132     0.06100
H304        H  0.81690745  0.98659273  0.30090280     0.08000
H305        H  0.88255063  0.98400413  0.23401600     0.11500
H306        H  0.76675599  0.01894368  0.11954058     0.11800
H307        H  0.70102448  0.02014261  0.18628383     0.08100
C308        C  0.67387735  0.04158633  0.28789973    -0.11000
C309        C  0.63568890  0.04217859  0.32571110    -0.10300
C310        C  0.63638221  0.00590936  0.36572287    -0.01200
C311        C  0.67596356  0.96916128  0.36748923    -0.11400
C312        C  0.71435805  0.96874351  0.32990011    -0.09800
H313        H  0.67264259  0.07033035  0.25773224     0.08100
H314        H  0.60558349  0.07099363  0.32389760     0.11800
H315        H  0.67698446  0.94073555  0.39798916     0.11500
H316        H  0.74405081  0.93954617  0.33190154     0.08100
C317        C  0.01246837  0.19896273  0.73730143    -0.11000
C318        C  0.99751742  0.24952885  0.74906462     0.06100
C319        C  0.98321251  0.26132149  0.79980053    -0.09800
C320        C  0.98374538  0.22336666  0.83797590    -0.11400
C321        C  0.99812119  0.17258286  0.82615750    -0.01200
C322        C  0.01241238  0.16082032  0.77533269    -0.10300
C323        C  0.99628606  0.28981285  0.70852782     0.06100
H324        H  0.97207066  0.30011677  0.81006100     0.08000
H325        H  0.97248804  0.23376126  0.87668713     0.11500
H326        H  0.02393935  0.12216881  0.76496284     0.11800
H327        H  0.02338430  0.18872724  0.69845068     0.08100
C328        C  0.03711162  0.29482990  0.67333628    -0.11000
C329        C  0.03598836  0.33324446  0.63560049    -0.10300
C330        C  0.99399266  0.36707958  0.63236738    -0.01200
C331        C  0.95304742  0.36200231  0.66708584    -0.11400
C332        C  0.95418353  0.32370889  0.70488508    -0.09800
H333        H  0.07020442  0.26953470  0.67552595     0.08100
H334        H  0.06792573  0.33683097  0.60904086     0.11800
H335        H  0.92021961  0.38763616  0.66474958     0.11500
H336        H  0.92188529  0.32022023  0.73099456     0.08100
C337        C  0.02983258  0.74347504  0.79709568    -0.11000
C338        C  0.00339218  0.75166251  0.75059784     0.06100
C339        C  0.97713266  0.79829213  0.74299038    -0.09800
C340        C  0.97759008  0.83620755  0.78095107    -0.11400
C341        C  0.00347495  0.82784610  0.82766734    -0.01200
C342        C  0.02949366  0.78106784  0.83551223    -0.10300
C343        C  0.00300021  0.71168549  0.71011214     0.06100
H344        H  0.95675578  0.80565413  0.70735739     0.08000
H345        H  0.95702907  0.87183232  0.77407507     0.11500
H346        H  0.04999032  0.77381413  0.87111161     0.11800
H347        H  0.05009362  0.70768335  0.80397952     0.08100
C348        C  0.04886780  0.68686121  0.69569594    -0.11000
C349        C  0.04843997  0.64931226  0.65729373    -0.10300
C350        C  0.00201953  0.63537891  0.63346831    -0.01200
C351        C  0.95621415  0.66021484  0.64757784    -0.11400
C352        C  0.95672251  0.69828244  0.68541982    -0.09800
H353        H  0.08510985  0.69704048  0.71366507     0.08100
H354        H  0.08417646  0.63085749  0.64628571     0.11800
H355        H  0.92016650  0.65011611  0.62915226     0.11500
H356        H  0.92084774  0.71674339  0.69595815     0.08100
C357        C  0.05001978  0.70319042  0.32041837    -0.11000
C358        C  0.00612202  0.71286436  0.29024772     0.06100
C359        C  0.96135857  0.68361876  0.29848869    -0.09800
C360        C  0.96056382  0.64516110  0.33607616    -0.11400
C361        C  0.00460176  0.63516483  0.36568405    -0.01200
C362        C  0.04931181  0.66443373  0.35779685    -0.10300
C363        C  0.00699225  0.75291724  0.24978393     0.06100
H364        H  0.92687713  0.69092596  0.27613308     0.08000
H365        H  0.92556655  0.62334891  0.34235209     0.11500
H366        H  0.08346240  0.65727545  0.38069175     0.11800
H367        H  0.08498920  0.72514546  0.31453812     0.08100
C368        C  0.02407188  0.80293064  0.26082574    -0.11000
C369        C  0.02342596  0.84096720  0.22268099    -0.10300
C370        C  0.00658932  0.82935074  0.17255203    -0.01200
C371        C  0.99034701  0.77900338  0.16150259    -0.11400
C372        C  0.99014772  0.74131409  0.19983810    -0.09800
H373        H  0.03701737  0.81275017  0.29919201     0.08100
H374        H  0.03635449  0.87936313  0.23235568     0.11800
H375        H  0.97700289  0.76887561  0.12336499     0.11500
H376        H  0.97715322  0.70287817  0.19040619     0.08100
C377        C  0.99302436  0.19614193  0.26313338    -0.11000
C378        C  0.99138781  0.24848405  0.24968554     0.06100
C379        C  0.99121947  0.26207801  0.19738911    -0.09800
C380        C  0.99317315  0.22421258  0.15927639    -0.11400
C381        C  0.99500699  0.17173895  0.17252231    -0.01200
C382        C  0.99458951  0.15818299  0.22502736    -0.10300
C383        C  0.99066274  0.28889693  0.28999347     0.06100
H384        H  0.99048645  0.30215702  0.18597210     0.08000
H385        H  0.99344167  0.23618023  0.11936958     0.11500
H386        H  0.99563859  0.11821657  0.23680243     0.11800
H387        H  0.99267336  0.18459279  0.30318483     0.08100
C388        C  0.95621322  0.33053573  0.28663032    -0.11000
C389        C  0.95598958  0.36887116  0.32437402    -0.10300
C390        C  0.99073131  0.36670488  0.36576577    -0.01200
C391        C  0.02538610  0.32527577  0.36895583    -0.11400
C392        C  0.02504676  0.28652924  0.33171178    -0.09800
H393        H  0.92905218  0.33307175  0.25508027     0.08100
H394        H  0.92875322  0.40030749  0.32133629     0.11800
H395        H  0.05270357  0.32299215  0.40040234     0.11500
H396        H  0.05233964  0.25516783  0.33496400     0.08100
loop_ 
_geom_bond_atom_site_label_1 
_geom_bond_atom_site_label_2 
_geom_bond_distance 
_geom_bond_site_symmetry_2 
_ccdc_geom_bond_type 
N1            C6   1.356   1_655  A
N1            C5   1.354   1_655  A
N1           H33   1.037       .  S
N2            C9   1.351   1_455  A
N2           C10   1.352   1_455  A
N3            C8   1.354   1_655  A
N3            C7   1.354   1_655  A
N3           H34   1.037       .  S
N4           C11   1.352       .  A
N4           C12   1.351       .  A
C5           C13   1.386       .  A
C5           C21   1.417       .  A
C6           C22   1.420   1_455  A
C6           C14   1.387       .  A
C7           C15   1.388       .  A
C7           C24   1.417       .  A
C8           C23   1.416   1_455  A
C8           C16   1.386       .  A
C9           C21   1.413   1_655  A
C9           C17   1.387       .  A
C10          C24   1.413   1_655  A
C10          C18   1.387       .  A
C11          C19   1.387       .  A
C11          C22   1.415       .  A
C12          C20   1.386       .  A
C12          C23   1.412       .  A
C13          C14   1.375       .  A
C13          H25   1.082       .  S
C14          H26   1.082       .  S
C15          C16   1.374       .  A
C15          H27   1.082       .  S
C16          H28   1.082       .  S
C17          C18   1.370       .  A
C17          H29   1.082       .  S
C18          H30   1.082       .  S
C19          C20   1.371       .  A
C19          H31   1.082       .  S
C20          H32   1.082       .  S
C21         C361   1.483       .  S
C22         C390   1.493       .  S
C23         C330   1.484       .  S
C24         C350   1.483       .  S
O35          C46   1.294       .  A
O35         Eu71   2.473   1_554  S
O36          C47   1.293       .  A
O36         Eu70   2.463   1_554  S
O37          C48   1.291       .  A
O37         Eu43   2.453   1_655  S
O38          C49   1.291       .  A
O38         Eu43   2.457       .  S
O39          C49   1.291   1_565  A
O39         Eu73   2.459   1_564  S
O40          C48   1.291   1_565  A
O40         Eu72   2.451   1_554  S
O41          C47   1.290       .  A
O41         Eu43   2.451   1_565  S
O42          C46   1.291       .  A
O42         Eu43   2.453   1_655  S
Eu43         O53   2.353       .  S
Eu43         O45   2.348   1_455  S
Eu43         O44   2.350   1_545  S
Eu43         O51   2.358   1_445  S
O44         Eu73   2.349   1_564  S
O44         Eu70   2.350   1_554  S
O45         Eu71   2.347   1_554  S
O45         Eu72   2.351   1_544  S
C46         C381   1.489       .  S
C47         C370   1.481       .  S
C48         C301   1.479       .  S
C49         C290   1.479       .  S
H50          O51   0.969       .  S
O51         Eu72   2.356   1_554  S
O51         Eu70   2.353   1_654  S
H52          O53   0.965       .  S
O53         Eu71   2.355   1_454  S
O53         Eu73   2.358   1_554  S
O54          C77   1.291       .  A
O54         Eu70   2.456       .  S
O55          C78   1.292       .  A
O55         Eu71   2.461       .  S
O56          C79   1.293       .  A
O56         Eu72   2.463       .  S
O57          C80   1.291       .  A
O57         Eu73   2.459   1_565  S
O58          C81   1.290       .  A
O58         Eu73   2.448       .  S
O59          C82   1.292       .  A
O59         Eu72   2.466   1_544  S
O60          C83   1.292       .  A
O60         Eu74   2.458   1_665  S
O61          C84   1.293       .  A
O61         Eu74   2.463       .  S
O62          C83   1.292       .  A
O62         Eu72   2.461       .  S
O63          C84   1.291       .  A
O63         Eu73   2.452       .  S
O64          C79   1.293       .  A
O64         Eu70   2.463   1_655  S
O65          C82   1.291   1_556  A
O65         Eu71   2.458       .  S
O66          C81   1.292       .  A
O66         Eu71   2.461   1_455  S
O67          C80   1.291   1_554  A
O67         Eu70   2.454   1_554  S
O68          C77   1.292       .  A
O68         Eu74   2.460   1_565  S
O69          C78   1.292       .  A
O69         Eu74   2.459   1_655  S
Eu70         O88   2.353       .  S
Eu70         O76   2.353   1_455  S
Eu71         O75   2.353   1_655  S
Eu71         O86   2.356       .  S
Eu72         O86   2.352   1_565  S
Eu72         O76   2.351       .  S
Eu73         O75   2.352       .  S
Eu73         O88   2.349   1_545  S
Eu74         O75   2.350       .  S
Eu74         O86   2.354   1_455  S
Eu74         O88   2.352   1_545  S
Eu74         O76   2.352   1_445  S
C77         C341   1.476       .  S
C78         C321   1.484       .  S
C79         C170   1.488       .  S
C80         C210   1.478       .  S
C81         C221   1.481       .  S
C82         C181   1.471       .  S
C83         C250   1.482       .  S
C84         C261   1.484       .  S
H85          O86   0.966       .  S
H87          O88   0.967       .  S
N89          C94   1.354       .  A
N89          C93   1.353   1_545  A
N89         H121   1.038       .  S
N90          C97   1.351       .  A
N90          C98   1.352       .  A
N91          C96   1.353   1_545  A
N91          C95   1.354   1_545  A
N91         H122   1.038       .  S
N92          C99   1.352       .  A
N92         C100   1.352       .  A
C93         C101   1.387       .  A
C93         C109   1.417   1_565  A
C94         C110   1.417       .  A
C94         C102   1.388   1_545  A
C95         C103   1.387       .  A
C95         C112   1.414   1_565  A
C96         C111   1.415   1_565  A
C96         C104   1.387       .  A
C97         C109   1.414       .  A
C97         C105   1.386       .  A
C98         C112   1.412       .  A
C98         C106   1.386       .  A
C99         C107   1.387       .  A
C99         C110   1.414       .  A
C100        C108   1.386       .  A
C100        C111   1.415       .  A
C101        C102   1.374       .  A
C101        H113   1.082       .  S
C102        H114   1.082       .  S
C103        C104   1.373       .  A
C103        H115   1.082       .  S
C104        H116   1.082       .  S
C105        C106   1.371       .  A
C105        H117   1.082       .  S
C106        H118   1.082       .  S
C107        C108   1.373       .  A
C107        H119   1.082       .  S
C108        H120   1.082       .  S
C109        C310   1.487       .  S
C110        C281   1.485       .  S
C111        C270   1.488       .  S
C112        C241   1.484       .  S
N123        C128   1.354   1_554  A
N123        C127   1.353   1_554  A
N123        H155   1.040       .  S
N124        C131   1.350       .  A
N124        C132   1.349       .  A
N125        C130   1.354       .  A
N125        C129   1.353       .  A
N125        H156   1.040       .  S
N126        C133   1.352       .  A
N126        C134   1.352       .  A
C127        C135   1.386       .  A
C127        C143   1.413       .  A
C128        C144   1.418   1_556  A
C128        C136   1.388       .  A
C129        C137   1.387   1_554  A
C129        C146   1.414       .  A
C130        C145   1.416       .  A
C130        C138   1.387   1_554  A
C131        C143   1.410   1_554  A
C131        C139   1.386       .  A
C132        C146   1.410       .  A
C132        C140   1.387       .  A
C133        C141   1.388       .  A
C133        C144   1.417       .  A
C134        C142   1.385       .  A
C134        C145   1.413       .  A
C135        C136   1.376       .  A
C135        H147   1.083       .  S
C136        H148   1.082       .  S
C137        C138   1.375       .  A
C137        H149   1.082       .  S
C138        H150   1.082       .  S
C139        C140   1.372       .  A
C139        H151   1.082       .  S
C140        H152   1.082       .  S
C141        C142   1.372       .  A
C141        H153   1.082       .  S
C142        H154   1.082       .  S
C143        C230   1.483       .  S
C144        C190   1.496       .  S
C145        C161   1.491       .  S
C146        C201   1.478       .  S
C157        C158   1.406   1_556  A
C157        C162   1.398       .  A
C157        H167   1.083       .  S
C158        C159   1.408       .  A
C158        C163   1.488       .  S
C159        C160   1.400       .  A
C159        H164   1.083       .  S
C160        C161   1.404       .  A
C160        H165   1.083       .  S
C161        C162   1.404   1_554  A
C162        H166   1.083       .  S
C163        C168   1.406       .  A
C163        C172   1.405       .  A
C168        C169   1.400   1_554  A
C168        H173   1.083   1_554  S
C169        C170   1.408       .  A
C169        H174   1.083       .  S
C170        C171   1.407   1_556  A
C171        C172   1.399       .  A
C171        H175   1.083       .  S
C172        H176   1.083       .  S
C177        C178   1.412   1_556  A
C177        C182   1.398       .  A
C177        H187   1.081       .  S
C178        C179   1.411       .  A
C178        C183   1.499       .  S
C179        C180   1.401       .  A
C179        H184   1.081       .  S
C180        C181   1.401       .  A
C180        H185   1.084       .  S
C181        C182   1.399   1_554  A
C182        H186   1.084       .  S
C183        C188   1.409   1_554  A
C183        C192   1.411       .  A
C188        C189   1.395       .  A
C188        H193   1.081       .  S
C189        C190   1.403   1_556  A
C189        H194   1.083       .  S
C190        C191   1.405       .  A
C191        C192   1.401       .  A
C191        H195   1.083       .  S
C192        H196   1.082       .  S
C197        C198   1.403   1_556  A
C197        C202   1.397       .  A
C197        H207   1.083       .  S
C198        C199   1.403       .  A
C198        C203   1.473   1_554  S
C199        C200   1.396       .  A
C199        H204   1.083       .  S
C200        C201   1.402       .  A
C200        H205   1.083       .  S
C201        C202   1.402   1_554  A
C202        H206   1.083       .  S
C203        C208   1.403       .  A
C203        C212   1.401   1_556  A
C208        C209   1.399       .  A
C208        H213   1.083       .  S
C209        C210   1.406       .  A
C209        H214   1.083       .  S
C210        C211   1.406   1_556  A
C211        C212   1.395       .  A
C211        H215   1.083       .  S
C212        H216   1.083       .  S
C217        C218   1.404   1_554  A
C217        C222   1.396       .  A
C217        H227   1.083       .  S
C218        C219   1.404       .  A
C218        C223   1.481       .  S
C219        C220   1.397       .  A
C219        H224   1.083       .  S
C220        C221   1.406       .  A
C220        H225   1.083       .  S
C221        C222   1.407   1_556  A
C222        H226   1.083       .  S
C223        C228   1.405   1_556  A
C223        C232   1.406       .  A
C228        C229   1.395       .  A
C228        H233   1.083       .  S
C229        C230   1.402   1_554  A
C229        H234   1.083       .  S
C230        C231   1.403       .  A
C231        C232   1.399       .  A
C231        H235   1.083       .  S
C232        H236   1.083       .  S
C237        C238   1.403   1_565  A
C237        C242   1.398       .  A
C237        H247   1.083       .  S
C238        C239   1.403       .  A
C238        C243   1.474   1_545  S
C239        C240   1.398       .  A
C239        H244   1.083       .  S
C240        C241   1.403       .  A
C240        H245   1.083       .  S
C241        C242   1.403   1_545  A
C242        H246   1.083       .  S
C243        C248   1.402       .  A
C243        C252   1.401   1_565  A
C248        C249   1.399       .  A
C248        H253   1.083       .  S
C249        C250   1.407       .  A
C249        H254   1.083       .  S
C250        C251   1.407   1_565  A
C251        C252   1.398       .  A
C251        H255   1.083       .  S
C252        H256   1.083       .  S
C257        C258   1.404       .  A
C257        C262   1.398       .  A
C257        H267   1.083       .  S
C258        C259   1.405   1_545  A
C258        C263   1.484       .  S
C259        C260   1.398       .  A
C259        H264   1.083       .  S
C260        C261   1.406   1_565  A
C260        H265   1.083       .  S
C261        C262   1.408       .  A
C262        H266   1.083       .  S
C263        C268   1.406       .  A
C263        C272   1.406   1_545  A
C268        C269   1.397       .  A
C268        H273   1.083       .  S
C269        C270   1.404       .  A
C269        H274   1.083       .  S
C270        C271   1.403   1_545  A
C271        C272   1.398       .  A
C271        H275   1.083       .  S
C272        H276   1.083       .  S
C277        C278   1.405       .  A
C277        C282   1.399       .  A
C277        H287   1.083       .  S
C278        C279   1.404   1_545  A
C278        C283   1.478       .  S
C279        C280   1.398       .  A
C279        H284   1.083       .  S
C280        C281   1.403   1_565  A
C280        H285   1.083       .  S
C281        C282   1.403       .  A
C282        H286   1.083       .  S
C283        C288   1.403       .  A
C283        C292   1.404   1_545  A
C288        C289   1.398       .  A
C288        H293   1.083       .  S
C289        C290   1.406       .  A
C289        H294   1.083       .  S
C290        C291   1.406   1_545  A
C291        C292   1.399       .  A
C291        H295   1.083       .  S
C292        H296   1.083       .  S
C297        C298   1.405       .  A
C297        C302   1.396       .  A
C297        H307   1.083       .  S
C298        C299   1.406   1_545  A
C298        C303   1.484       .  S
C299        C300   1.396       .  A
C299        H304   1.083       .  S
C300        C301   1.406   1_565  A
C300        H305   1.083       .  S
C301        C302   1.405       .  A
C302        H306   1.083       .  S
C303        C308   1.407       .  A
C303        C312   1.406   1_545  A
C308        C309   1.397       .  A
C308        H313   1.083       .  S
C309        C310   1.403       .  A
C309        H314   1.083       .  S
C310        C311   1.403   1_545  A
C311        C312   1.396       .  A
C311        H315   1.083       .  S
C312        H316   1.083       .  S
C317        C318   1.405   1_455  A
C317        C322   1.399       .  A
C317        H327   1.083       .  S
C318        C319   1.405       .  A
C318        C323   1.485       .  S
C319        C320   1.398       .  A
C319        H324   1.083       .  S
C320        C321   1.406       .  A
C320        H325   1.083       .  S
C321        C322   1.407   1_655  A
C322        H326   1.083       .  S
C323        C328   1.406   1_655  A
C323        C332   1.407       .  A
C328        C329   1.399       .  A
C328        H333   1.083       .  S
C329        C330   1.403   1_455  A
C329        H334   1.083       .  S
C330        C331   1.401       .  A
C331        C332   1.398       .  A
C331        H335   1.083       .  S
C332        H336   1.083       .  S
C337        C338   1.405       .  A
C337        C342   1.399       .  A
C337        H347   1.083       .  S
C338        C339   1.404   1_455  A
C338        C343   1.481       .  S
C339        C340   1.396       .  A
C339        H344   1.083       .  S
C340        C341   1.404   1_655  A
C340        H345   1.083       .  S
C341        C342   1.405       .  A
C342        H346   1.083       .  S
C343        C348   1.405       .  A
C343        C352   1.406   1_455  A
C348        C349   1.398       .  A
C348        H353   1.083       .  S
C349        C350   1.402       .  A
C349        H354   1.083       .  S
C350        C351   1.402   1_455  A
C351        C352   1.397       .  A
C351        H355   1.083       .  S
C352        H356   1.083       .  S
C357        C358   1.405       .  A
C357        C362   1.399       .  A
C357        H367   1.083       .  S
C358        C359   1.405   1_455  A
C358        C363   1.479       .  S
C359        C360   1.397       .  A
C359        H364   1.083       .  S
C360        C361   1.401   1_655  A
C360        H365   1.083       .  S
C361        C362   1.403       .  A
C362        H366   1.083       .  S
C363        C368   1.404       .  A
C363        C372   1.403   1_455  A
C368        C369   1.399       .  A
C368        H373   1.083       .  S
C369        C370   1.408       .  A
C369        H374   1.083       .  S
C370        C371   1.405   1_455  A
C371        C372   1.396       .  A
C371        H375   1.083       .  S
C372        H376   1.083       .  S
C377        C378   1.405       .  A
C377        C382   1.400       .  A
C377        H387   1.083       .  S
C378        C379   1.404       .  A
C378        C383   1.485       .  S
C379        C380   1.399       .  A
C379        H384   1.083       .  S
C380        C381   1.407       .  A
C380        H385   1.083       .  S
C381        C382   1.409       .  A
C382        H386   1.083       .  S
C383        C388   1.406       .  A
C383        C392   1.405   1_655  A
C388        C389   1.400       .  A
C388        H393   1.083       .  S
C389        C390   1.404       .  A
C389        H394   1.083       .  S
C390        C391   1.405   1_655  A
C391        C392   1.399       .  A
C391        H395   1.083       .  S
C392        H396   1.083       .  S
