geometry optimzed in LAMMPS
_audit_creation_date              2020-11-30 
_audit_creation_method            'lammps2cif' 
_symmetry_space_group_name_H-M    'P1' 
_symmetry_Int_Tables_number       1 
_symmetry_cell_setting            triclinic 
loop_ 
_symmetry_equiv_pos_as_xyz 
  x,y,z 
_cell_length_a                    54.11408641 
_cell_length_b                    55.01175539512771 
_cell_length_c                    54.60003908888052 
_cell_angle_alpha                 90.08565156386237 
_cell_angle_beta                  89.99871605077138 
_cell_angle_gamma                 89.80397666955118 
loop_ 
_atom_site_label 
_atom_site_type_symbol 
_atom_site_fract_x 
_atom_site_fract_y 
_atom_site_fract_z 
_atom_site_charge 
O1          O  0.32213424  0.87352859  0.47607807    -0.57200
C2          C  0.35951041  0.91789203  0.53795718     0.75400
O3          O  0.35566832  0.84268308  0.53784954    -0.58400
C4          C  0.32719960  0.85137243  0.47110831     0.75400
C5          C  0.39869611  0.87962844  0.47523573     0.77800
Cd6        Cd  0.35617691  0.87575028  0.50660169     1.37500
O7          O  0.34384657  0.91779413  0.52051755    -0.57200
O8          O  0.37987787  0.89337658  0.47357882    -0.56000
C9          C  0.33229969  0.84445451  0.54051876     0.77800
O10         O  0.39861163  0.86415387  0.49258485    -0.58400
O11         O  0.37332983  0.89929052  0.53972100    -0.56800
O12         O  0.34600135  0.84205053  0.48129119    -0.56800
O13         O  0.32132303  0.86122040  0.52891637    -0.56000
O14         O  0.24612367  0.72736876  0.47076535    -0.57200
C15         C  0.21118884  0.68211287  0.53659793     0.75400
O16         O  0.21608696  0.75460378  0.53507151    -0.58400
C17         C  0.24158054  0.75010184  0.46877345     0.75400
C18         C  0.16970311  0.71503037  0.47435089     0.77800
Cd19       Cd  0.21392462  0.72249991  0.50322117     1.37500
O20         O  0.22603601  0.68094063  0.51844474    -0.57200
O21         O  0.18913965  0.70221020  0.47197208    -0.56000
C22         C  0.23939985  0.75183886  0.53769378     0.77800
O23         O  0.17035647  0.73169172  0.49059958    -0.58400
O24         O  0.19809700  0.70124451  0.53826940    -0.56800
O25         O  0.22355860  0.75860063  0.48096609    -0.56800
O26         O  0.24981949  0.73509199  0.52542563    -0.56000
O27         O  0.26735538  0.83515770  0.59734627    -0.57200
C28         C  0.25440775  0.76739082  0.55365907     0.75400
O29         O  0.32715456  0.81209055  0.56967215    -0.58400
C30         C  0.25810174  0.82756662  0.61715853     0.75400
C31         C  0.31321581  0.76573072  0.61705258     0.77800
Cd32       Cd  0.28598734  0.79679585  0.58452518     1.37500
O33         O  0.24511019  0.78206359  0.56895459    -0.57200
O34         O  0.31183690  0.78843545  0.62059105    -0.56000
C35         C  0.31768304  0.82780169  0.55560822     0.77800
O36         O  0.30340419  0.75773862  0.59762483    -0.58400
O37         O  0.27772596  0.76672072  0.55250804    -0.56800
O38         O  0.26048567  0.80506754  0.62144612    -0.56800
O39         O  0.29437624  0.82851083  0.55472857    -0.56000
O40         O  0.26413360  0.82208648  0.38873776    -0.57200
C41         C  0.31194485  0.83612089  0.45514647     0.75400
O42         O  0.27185578  0.75989277  0.43779676    -0.58400
C43         C  0.24222139  0.81956238  0.39644049     0.75400
C44         C  0.31657626  0.78402969  0.38949336     0.77800
Cd45       Cd  0.28312724  0.80280066  0.42557824     1.37500
O46         O  0.29304381  0.84379022  0.44393493    -0.57200
O47         O  0.30028788  0.79988569  0.38484361    -0.56000
C48         C  0.25655680  0.76681586  0.45395061     0.77800
O49         O  0.31676800  0.77544472  0.41102370    -0.58400
O50         O  0.31703514  0.81388784  0.45259440    -0.56800
O51         O  0.23987436  0.81182878  0.41809722    -0.56800
O52         O  0.25457544  0.78948936  0.45716622    -0.56000
O53         O  0.52289661  0.85178909  0.37137796    -0.57200
C54         C  0.57057281  0.83868536  0.30568785     0.75400
O55         O  0.50262122  0.87148665  0.29695965    -0.58400
C56         C  0.50614607  0.86765516  0.37514416     0.75400
C57         C  0.56482840  0.91019149  0.33585736     0.77800
Cd58       Cd  0.53446241  0.86794247  0.33026051     1.37500
O59         O  0.56619134  0.83470383  0.32825005    -0.57200
O60         O  0.56716028  0.89124013  0.34883049    -0.56000
C61         C  0.49754059  0.84892283  0.29826579     0.77800
O62         O  0.54740772  0.91022241  0.32018644    -0.58400
O63         O  0.55940349  0.85636751  0.29582781    -0.56800
O64         O  0.50335738  0.88362272  0.35862875    -0.56800
O65         O  0.50823068  0.83674262  0.31481563    -0.56000
O66         O  0.53726518  0.68235609  0.20098252    -0.57200
C67         C  0.49502580  0.75371683  0.21100116     0.75400
O68         O  0.56693340  0.75329174  0.18662423    -0.58400
C69         C  0.55594674  0.67809613  0.18741472     0.75400
C70         C  0.50583963  0.72482421  0.13774375     0.77800
Cd71       Cd  0.53074790  0.72481420  0.18485405     1.37500
O72         O  0.49446680  0.73067034  0.21351263    -0.57200
O73         O  0.49904130  0.71177271  0.15563443    -0.56000
C74         C  0.56842971  0.75173112  0.20987102     0.77800
O75         O  0.52503347  0.73770121  0.14117322    -0.58400
O76         O  0.51073396  0.76215483  0.19615844    -0.56800
O77         O  0.56164892  0.69470093  0.17238609    -0.56800
O78         O  0.55377422  0.73719626  0.22036602    -0.56000
O79         O  0.46892210  0.84678547  0.26440224    -0.57200
C80         C  0.42607912  0.83171124  0.20924334     0.75400
O81         O  0.46037632  0.76436973  0.23694504    -0.58400
C82         C  0.48083386  0.83633482  0.28134171     0.75400
C83         C  0.40921022  0.78999504  0.27884697     0.77800
Cd84       Cd  0.44968264  0.80748579  0.24947065     1.37500
O85         O  0.42236256  0.83901602  0.23097020    -0.57200
O86         O  0.40588003  0.80078347  0.25871073    -0.56000
C87         C  0.47910352  0.77077332  0.22463757     0.77800
O88         O  0.43140239  0.78580176  0.28474748    -0.58400
O89         O  0.44176638  0.81483850  0.20646941    -0.56800
O90         O  0.47825347  0.81363154  0.28297973    -0.56800
O91         O  0.48391149  0.79325047  0.22440695    -0.56000
O92         O  0.60315784  0.77860042  0.21617300    -0.57200
C93         C  0.65095263  0.82754841  0.23466147     0.75400
O94         O  0.60138785  0.80756069  0.29939023    -0.58400
C95         C  0.58543763  0.76633907  0.22486470     0.75400
C96         C  0.64453075  0.75662881  0.28266333     0.77800
Cd97       Cd  0.61685686  0.79400159  0.25783062     1.37500
O98         O  0.62792616  0.83135239  0.23566755    -0.57200
O99         O  0.65116173  0.77866397  0.28403093    -0.56000
C100        C  0.58690685  0.82340638  0.29065843     0.77800
O101        O  0.62499377  0.75241238  0.27073268    -0.58400
O102        O  0.65828286  0.80714030  0.24259752    -0.56800
O103        O  0.58256479  0.76727561  0.24778682    -0.56800
O104        O  0.58664660  0.82543098  0.26766029    -0.56000
O105        O  0.71203927  0.52694388  0.15085280    -0.57200
C106        C  0.73244557  0.57691106  0.21732454     0.75400
O107        O  0.65983185  0.55809616  0.20288364    -0.58400
C108        C  0.69665978  0.50944430  0.15182031     0.75400
C109        C  0.72877436  0.50728176  0.22178424     0.77800
Cd110      Cd  0.70232896  0.54183494  0.19311339     1.37500
O111        O  0.73663443  0.57190935  0.19484405    -0.57200
O112        O  0.73785794  0.51840308  0.20358887    -0.56000
C113        C  0.66122860  0.57485814  0.18678701     0.77800
O114        O  0.70595463  0.51103682  0.22665538    -0.58400
O115        O  0.71415563  0.56658293  0.22740674    -0.56800
O116        O  0.68366607  0.50800987  0.17115499    -0.56800
O117        O  0.68077139  0.57522181  0.17390646    -0.56000
O118        O  0.89161343  0.55817148  0.33477689    -0.57200
C119        C  0.82685034  0.50892236  0.31132259     0.75400
O120        O  0.83230380  0.53280297  0.38428486    -0.58400
C121        C  0.88969436  0.57703325  0.34825953     0.75400
C122        C  0.82023202  0.57867745  0.31474360     0.77800
Cd123      Cd  0.84839238  0.54451847  0.34285304     1.37500
O124        O  0.85015555  0.51225886  0.31006390    -0.57200
O125        O  0.83879500  0.56726877  0.30642521    -0.56000
C126        C  0.84820087  0.51601276  0.38777253     0.77800
O127        O  0.81478183  0.57536551  0.33724805    -0.58400
O128        O  0.81517539  0.52056781  0.32768365    -0.42400
O129        O  0.86948208  0.57964942  0.35978011    -0.56800
O130        O  0.86442084  0.51338007  0.37116977    -0.56000
O131        O  0.77113979  0.66301027  0.28527196    -0.57200
C132        C  0.80575132  0.59435584  0.29826233     0.75400
O133        O  0.76722460  0.60351909  0.22362629    -0.58400
C134        C  0.74828399  0.65981600  0.28879985     0.75400
C135        C  0.80908017  0.65762483  0.23755200     0.77800
Cd136      Cd  0.77799999  0.62409854  0.26374858     1.37500
O137        O  0.78833049  0.60786094  0.30560139    -0.57200
O138        O  0.78576608  0.65957845  0.23708517    -0.56000
C139        C  0.74804974  0.59334701  0.23191180     0.77800
O140        O  0.81777292  0.63906836  0.24826316    -0.58400
O141        O  0.81010323  0.59463107  0.27552593    -0.56800
O142        O  0.73966760  0.63945298  0.28226284    -0.56800
O143        O  0.74300245  0.59751020  0.25409182    -0.56000
O144        O  0.80047502  0.45230562  0.22550680    -0.57200
C145        C  0.81279388  0.49310420  0.29464818     0.75400
O146        O  0.73749322  0.47807639  0.25361529    -0.58400
C147        C  0.80450658  0.43017615  0.23050312     0.75400
C148        C  0.75652029  0.43196914  0.29969885     0.77800
Cd149      Cd  0.78041757  0.46297539  0.26467203     1.37500
O150        O  0.82241520  0.47849107  0.27943250    -0.57200
O151        O  0.75951103  0.42516421  0.27772249    -0.56000
C152        C  0.74505265  0.49161796  0.23652983     0.77800
O153        O  0.76339825  0.45330697  0.30480948    -0.58400
O154        O  0.78952725  0.49386167  0.29503443    -0.56800
O155        O  0.79925107  0.42358194  0.25209242    -0.56800
O156        O  0.76805161  0.49154743  0.23270666    -0.56000
O157        O  0.71291299  0.07666246  0.29774663    -0.57200
C158        C  0.66537269  0.01547270  0.32699129     0.75400
O159        O  0.74258629  0.00951611  0.32743409    -0.58400
C160        C  0.73628870  0.07800213  0.30037112     0.75400
C161        C  0.70916159  0.07042813  0.37363072     0.77800
Cd162      Cd  0.71056133  0.04276403  0.32837468     1.37500
O163        O  0.66881119  0.03292539  0.31211538    -0.57200
O164        O  0.69528616  0.07514976  0.35551255    -0.56000
C165        C  0.74070613  0.00709753  0.30427267     0.77800
O166        O  0.72320876  0.05193638  0.37140772    -0.58400
O167        O  0.68220688  0.01177969  0.34272147    -0.56800
O168        O  0.74618872  0.06436387  0.31622027    -0.56800
O169        O  0.72443923  0.01980642  0.29361008    -0.56000
O170        O  0.85281346  0.05590063  0.14669162    -0.57200
C171        C  0.83364934  0.00807418  0.21180902     0.75400
O172        O  0.90720760  0.03153911  0.20535546    -0.58400
C173        C  0.86840714  0.07315869  0.14575305     0.75400
C174        C  0.83939554  0.07852350  0.21988263     0.77800
Cd175      Cd  0.86497860  0.04363508  0.18990158     1.37500
O176        O  0.83145814  0.01215882  0.18891721    -0.57200
O177        O  0.82945035  0.06569932  0.20340439    -0.56000
C178        C  0.90929198  0.01352622  0.19080414     0.77800
O179        O  0.86273235  0.07645838  0.22250038    -0.58400
O180        O  0.85075073  0.01909544  0.22302983    -0.56800
O181        O  0.88226534  0.07553552  0.16433170    -0.56800
O182        O  0.89175044  0.01061201  0.17567482    -0.56000
O183        O  0.74788049  0.94538954  0.24031360    -0.57200
C184        C  0.81715697  0.99209862  0.22580364     0.75400
O185        O  0.77162321  0.97584814  0.29856423    -0.58400
C186        C  0.75703765  0.92512851  0.23396142     0.75400
C187        C  0.82263422  0.93061494  0.28101045     0.77800
Cd188      Cd  0.78722875  0.96164880  0.25725725     1.37500
O189        O  0.80069209  0.97878500  0.21624718    -0.57200
O190        O  0.82835685  0.95145860  0.27314561    -0.56000
C191        C  0.75675594  0.99119592  0.28950016     0.77800
O192        O  0.79993296  0.92518158  0.28031628    -0.58400
O193        O  0.81888310  0.99145723  0.24883613    -0.56800
O194        O  0.78024936  0.92313497  0.23569054    -0.56800
O195        O  0.75636577  0.99268010  0.26642000    -0.56000
O196        O  0.77317356  0.13342993  0.21991515    -0.57200
C197        C  0.75228859  0.09388589  0.28592603     0.75400
O198        O  0.83125353  0.11120882  0.24867871    -0.58400
C199        C  0.76474160  0.15440432  0.22436478     0.75400
C200        C  0.80653872  0.15281313  0.30111296     0.77800
Cd201      Cd  0.78770229  0.12407736  0.26117102     1.37500
O202        O  0.74445837  0.11096934  0.27246174    -0.57200
O203        O  0.79647112  0.13235716  0.30415973    -0.56000
C204        C  0.82345321  0.09429986  0.23495141     0.77800
O205        O  0.80990390  0.15940232  0.27911506    -0.58400
O206        O  0.77539786  0.09082035  0.28681302    -0.56800
O207        O  0.76611099  0.16146659  0.24639799    -0.56800
O208        O  0.80035195  0.09135827  0.23428582    -0.56000
O209        O  0.02084844  0.89910426  0.19511468    -0.57200
C210        C  0.06737239  0.83024004  0.21126111     0.75400
O211        O  0.99831736  0.82535253  0.18385085    -0.58400
C212        C  0.00289696  0.90047208  0.18005456     0.75400
C213        C  0.06286548  0.86061034  0.13920646     0.77800
Cd214      Cd  0.03214166  0.85637013  0.18232650     1.37500
O215        O  0.06452533  0.85300872  0.21486249    -0.57200
O216        O  0.06542184  0.87320085  0.15852042    -0.56000
C217        C  0.99555772  0.82842823  0.20688810     0.77800
O218        O  0.04500416  0.84554365  0.13907551    -0.58400
O219        O  0.05504754  0.82072159  0.19401902    -0.56800
O220        O  0.99951020  0.88206982  0.16642466    -0.56800
O221        O  0.00851239  0.84468977  0.21706661    -0.56000
O222        O  0.10001401  0.74090732  0.27047192    -0.57200
C223        C  0.14748254  0.75999939  0.21709771     0.75400
O224        O  0.09810351  0.82298698  0.24248591    -0.58400
C225        C  0.08373456  0.75069882  0.28400301     0.75400
C226        C  0.14769393  0.80585342  0.28797450     0.77800
Cd227      Cd  0.11512859  0.78159369  0.25374613     1.37500
O228        O  0.12466192  0.76333767  0.21344877    -0.57200
O229        O  0.13220808  0.78991170  0.29436513    -0.56000
C230        C  0.08365249  0.81477578  0.22625657     0.77800
O231        O  0.14778717  0.81147307  0.26548051    -0.58400
O232        O  0.15500806  0.76409453  0.23864617    -0.56800
O233        O  0.08196337  0.77356056  0.28274877    -0.56800
O234        O  0.08359061  0.79199309  0.22340961    -0.56000
O235        O  0.04073495  0.73273247  0.37414085    -0.57200
C236        C  0.99473836  0.74430697  0.30642314     0.75400
O237        O  0.06471710  0.71414022  0.30054576    -0.58400
C238        C  0.05809898  0.71765079  0.37839456     0.75400
C239        C  0.00062780  0.67258202  0.33612799     0.77800
Cd240      Cd  0.03067785  0.71599568  0.33252813     1.37500
O241        O  0.99828036  0.74872746  0.32908453    -0.57200
O242        O  0.99613206  0.69187985  0.34807399    -0.56000
C243        C  0.06728011  0.73717784  0.30066702     0.77800
O244        O  0.01992327  0.67278788  0.32276427    -0.58400
O245        O  0.00648049  0.72656194  0.29724593    -0.56800
O246        O  0.06176524  0.70159227  0.36210372    -0.56800
O247        O  0.05432871  0.74895536  0.31590623    -0.56000
O248        O  0.93951127  0.74568997  0.23925355    -0.57200
C249        C  0.97899610  0.81375561  0.22217885     0.75400
O250        O  0.90949625  0.79618328  0.27722382    -0.58400
C251        C  0.91765959  0.75035214  0.23247610     0.75400
C252        C  0.97861911  0.75901222  0.29051970     0.77800
Cd253      Cd  0.94844837  0.78611376  0.25576451     1.37500
O254        O  0.96317961  0.79910198  0.21370481    -0.57200
O255        O  0.97850573  0.75527963  0.26772056    -0.56000
C256        C  0.91307036  0.81890006  0.27780100     0.77800
O257        O  0.96469482  0.77591291  0.29820145    -0.58400
O258        O  0.98037003  0.81523263  0.24521019    -0.56800
O259        O  0.91066533  0.77224202  0.23452499    -0.56800
O260        O  0.93374927  0.82618343  0.26992883    -0.56000
O261        O  0.35812605  0.75567749  0.96816294    -0.57200
C262        C  0.40368037  0.71757984  0.03195137     0.75400
O263        O  0.32862989  0.72617318  0.03422518    -0.58400
C264        C  0.33480050  0.75281306  0.96599919     0.75400
C265        C  0.36011505  0.68044309  0.97189956     0.77800
Cd266      Cd  0.36052930  0.72408392  0.00140120     1.37500
O267        O  0.40403328  0.73377580  0.01523826    -0.57200
O268        O  0.37465359  0.69803697  0.96771330    -0.56000
C269        C  0.33228058  0.74872075  0.03820760     0.77800
O270        O  0.34620018  0.68251783  0.99061023    -0.58400
O271        O  0.38444056  0.70453328  0.03301430    -0.56800
O272        O  0.32480741  0.73671876  0.97923300    -0.56800
O273        O  0.34931517  0.75890201  0.02607087    -0.56000
O274        O  0.21133961  0.82462200  0.97098122    -0.57200
C275        C  0.16160943  0.85508664  0.03011576     0.75400
O276        O  0.23954440  0.85870842  0.03540860    -0.58400
C277        C  0.23341368  0.83097551  0.96602597     0.75400
C278        C  0.20125767  0.89986468  0.97276198     0.77800
Cd279      Cd  0.20707166  0.85701676  0.00264047     1.37500
O280        O  0.16504503  0.84070824  0.01213033    -0.57200
O281        O  0.18860125  0.88068787  0.97006394    -0.56000
C282        C  0.23889116  0.83577918  0.03872308     0.77800
O283        O  0.21639195  0.90008214  0.99064306    -0.58400
O284        O  0.17865174  0.87031831  0.03433821    -0.56800
O285        O  0.24194649  0.84929805  0.97716656    -0.56800
O286        O  0.22319127  0.82390073  0.02644747    -0.56000
O287        O  0.24834110  0.77695999  0.10279082    -0.57200
C288        C  0.31720217  0.76314354  0.05535504     0.75400
O289        O  0.27019816  0.83318202  0.07002721    -0.58400
C290        C  0.25679534  0.76863476  0.12266988     0.75400
C291        C  0.31947141  0.82332271  0.11705364     0.77800
Cd292      Cd  0.28725536  0.79395442  0.08706440     1.37500
O293        O  0.30176785  0.75379525  0.06996115    -0.57200
O294        O  0.32743118  0.81027935  0.09964344    -0.56000
C295        C  0.25558755  0.82268976  0.05538276     0.77800
O296        O  0.29626904  0.82377820  0.11999913    -0.58400
O297        O  0.31883892  0.78603870  0.05575365    -0.56800
O298        O  0.27994299  0.77037655  0.12557545    -0.56800
O299        O  0.25601851  0.79974132  0.05542658    -0.56000
O300        O  0.28374870  0.75035811  0.90495946    -0.57200
C301        C  0.24940460  0.81775504  0.94892598     0.75400
O302        O  0.32719743  0.78141260  0.93315724    -0.58400
C303        C  0.26653452  0.75233284  0.88943583     0.75400
C304        C  0.30226474  0.82668311  0.88197257     0.77800
Cd305      Cd  0.28433872  0.79234680  0.91794644     1.37500
O306        O  0.24249308  0.79931078  0.93696237    -0.57200
O307        O  0.28935085  0.80846247  0.87619967    -0.56000
C308        C  0.31901209  0.76719985  0.94949739     0.77800
O309        O  0.30860044  0.82818273  0.90423786    -0.58400
O310        O  0.27154021  0.82425183  0.94605322    -0.56800
O311        O  0.25650171  0.77308933  0.88738934    -0.56800
O312        O  0.29579300  0.76551521  0.95118700    -0.56000
O313        O  0.35118203  0.56414519  0.86463783    -0.57200
C314        C  0.33006920  0.51320271  0.80124393     0.75400
O315        O  0.36199453  0.57837941  0.78740216    -0.58400
C316        C  0.36633563  0.58179737  0.86359322     0.75400
C317        C  0.40617321  0.51899003  0.82569803     0.77800
Cd318      Cd  0.36214147  0.54881959  0.82245985     1.37500
O319        O  0.32751961  0.51847041  0.82387189    -0.57200
O320        O  0.38783488  0.51637637  0.83992191    -0.56000
C321        C  0.33895337  0.58256312  0.79006928     0.77800
O322        O  0.40466866  0.53622044  0.81022043    -0.58400
O323        O  0.34777552  0.52315566  0.78994707    -0.56800
O324        O  0.37927703  0.58321536  0.84430140    -0.56800
O325        O  0.32817510  0.57227248  0.80778682    -0.56000
O326        O  0.17013141  0.53282817  0.69057101    -0.57200
C327        C  0.24023223  0.58091196  0.70576898     0.75400
O328        O  0.24406042  0.51122996  0.68334876    -0.58400
C329        C  0.16989783  0.51507936  0.67549887     0.75400
C330        C  0.21460054  0.57302128  0.63420922     0.77800
Cd331      Cd  0.21351717  0.54501149  0.67890954     1.37500
O332        O  0.21686836  0.57953989  0.70890465    -0.57200
O333        O  0.19969051  0.57739762  0.65165625    -0.56000
C334        C  0.24044851  0.50982797  0.70640363     0.77800
O335        O  0.22835059  0.55431537  0.63659896    -0.58400
O336        O  0.24988049  0.56659253  0.69026897    -0.56800
O337        O  0.18870847  0.51284203  0.66179905    -0.56800
O338        O  0.22410787  0.52364666  0.71558427    -0.56000
O339        O  0.32277817  0.45290062  0.73997532    -0.57200
C340        C  0.25483778  0.49390128  0.72263200     0.75400
O341        O  0.27211354  0.43124142  0.78476790    -0.58400
C342        C  0.31715160  0.43106573  0.73552618     0.75400
C343        C  0.31340780  0.49692283  0.78768639     0.77800
Cd344      Cd  0.28308689  0.46526676  0.75738969     1.37500
O345        O  0.26967418  0.47777943  0.71494478    -0.57200
O346        O  0.31531118  0.49514785  0.76473287    -0.56000
C347        C  0.24900340  0.43478918  0.78370288     0.77800
O348        O  0.29666175  0.48430470  0.79761114    -0.58400
O349        O  0.25315609  0.49627973  0.74557853    -0.56800
O350        O  0.29487200  0.42524954  0.73935845    -0.56800
O351        O  0.24193973  0.45339240  0.77200650    -0.56000
O352        O  0.33361844  0.61295947  0.75864046    -0.57200
C353        C  0.31584973  0.65824119  0.70842830     0.75400
O354        O  0.24871288  0.61313806  0.73471979    -0.58400
C355        C  0.32432611  0.59803509  0.77364200     0.75400
C356        C  0.26980346  0.66139064  0.77954034     0.77800
Cd357      Cd  0.29179787  0.62835117  0.74471564     1.37500
O358        O  0.30969040  0.63652601  0.70410641    -0.57200
O359        O  0.26447696  0.66279051  0.75697441    -0.56000
C360        C  0.25641769  0.59761757  0.71935880     0.77800
O361        O  0.28432631  0.64441408  0.78568944    -0.58400
O362        O  0.31236651  0.66571475  0.73007609    -0.56800
O363        O  0.30103442  0.59695521  0.77429366    -0.56800
O364        O  0.27950138  0.59667369  0.71615200    -0.56000
O365        O  0.22232527  0.02785034  0.87430023    -0.57200
C366        C  0.23440808  0.07820045  0.81193606     0.75400
O367        O  0.20052451  0.01219555  0.79910655    -0.58400
C368        C  0.20745333  0.01017732  0.87687472     0.75400
C369        C  0.16279111  0.07406018  0.84087860     0.77800
Cd370      Cd  0.20460365  0.04174923  0.83432739     1.37500
O371        O  0.23956084  0.07151316  0.83368021    -0.57200
O372        O  0.18207490  0.07460562  0.85405912    -0.56000
C373        C  0.22368804  0.00787642  0.79914109     0.77800
O374        O  0.16154921  0.05685039  0.82530513    -0.58400
O375        O  0.21555250  0.06889667  0.80202059    -0.56800
O376        O  0.19082891  0.00814036  0.86061398    -0.56800
O377        O  0.23644472  0.01832428  0.81541532    -0.56000
O378        O  0.29229753  0.11525446  0.72296330    -0.57200
C379        C  0.24498673  0.16239474  0.74732129     0.75400
O380        O  0.26836998  0.10584161  0.80616536    -0.58400
C381        C  0.30377626  0.09643086  0.73009034     0.75400
C382        C  0.31954734  0.15157356  0.78648177     0.77800
Cd383      Cd  0.27842724  0.12590814  0.76581665     1.37500
O384        O  0.24260773  0.14023163  0.74161259    -0.57200
O385        O  0.32213480  0.13422951  0.77149070    -0.56000
C386        C  0.24955435  0.09513169  0.79772511     0.77800
O387        O  0.29766379  0.15636219  0.79329341    -0.58400
O388        O  0.26363810  0.16775080  0.76015750    -0.56800
O389        O  0.30251776  0.09146385  0.75263406    -0.56800
O390        O  0.24438990  0.09911516  0.77557737    -0.56000
O391        O  0.38983773  0.05327979  0.70252555    -0.57200
C392        C  0.31858626  0.00901104  0.71073155     0.75400
O393        O  0.31731030  0.08135971  0.69056880    -0.58400
C394        C  0.39300656  0.07208248  0.68930049     0.75400
C395        C  0.34779185  0.02181506  0.63998431     0.77800
Cd396      Cd  0.34658112  0.04604733  0.68684171     1.37500
O397        O  0.34164394  0.01068237  0.71531844    -0.57200
O398        O  0.36186772  0.01628876  0.65772398    -0.56000
C399        C  0.31838962  0.08070579  0.71389190     0.77800
O400        O  0.33340461  0.03989986  0.64328941    -0.58400
O401        O  0.30978117  0.02324281  0.69473524    -0.56800
O402        O  0.37538658  0.07763042  0.67502775    -0.56800
O403        O  0.33277703  0.06522376  0.72343578    -0.56000
O404        O  0.25801874  0.95489686  0.70526253    -0.57200
C405        C  0.23636860  0.99200909  0.78142035     0.75400
O406        O  0.29324638  0.94386770  0.78070137    -0.58400
C407        C  0.24513958  0.93596628  0.70826983     0.75400
C408        C  0.30188741  0.99230637  0.72358547     0.77800
Cd409      Cd  0.26623537  0.96212352  0.74863339     1.37500
O410        O  0.22567127  0.98019786  0.76460365    -0.57200
O411        O  0.27881746  0.99373548  0.72015906    -0.56000
C412        C  0.28740225  0.92210487  0.77601474     0.77800
O413        O  0.30923610  0.97644179  0.73874370    -0.58400
O414        O  0.25950928  0.98982942  0.78247765    -0.56800
O415        O  0.23957590  0.93059523  0.73015228    -0.56800
O416        O  0.27280264  0.91899983  0.75827583    -0.56000
O417        O  0.49395742  0.25376539  0.69092724    -0.57200
C418        C  0.55487833  0.22044777  0.64222812     0.75400
O419        O  0.55817028  0.22126673  0.71898483    -0.58400
C420        C  0.48989581  0.24856977  0.71334988     0.75400
C421        C  0.49433978  0.17778812  0.68196690     0.77800
Cd422      Cd  0.52519043  0.22039124  0.68673893     1.37500
O423        O  0.53592253  0.23413316  0.64417438    -0.57200
O424        O  0.49208512  0.19681618  0.66903375    -0.56000
C425        C  0.55959700  0.24441557  0.71796353     0.77800
O426        O  0.51214744  0.17759957  0.69725304    -0.58400
O427        O  0.55932223  0.20666352  0.66034265    -0.56800
O428        O  0.50047349  0.22983684  0.72188492    -0.56800
O429        O  0.54645927  0.25511402  0.70208835    -0.56000
O430        O  0.55932773  0.36139224  0.80161832    -0.57200
C431        C  0.50066576  0.40780509  0.84067597     0.75400
O432        O  0.49735162  0.33245288  0.83545903    -0.58400
C433        C  0.56424163  0.33914490  0.80618873     0.75400
C434        C  0.56464808  0.36965853  0.87777174     0.77800
Cd435      Cd  0.53055404  0.36446666  0.83684794     1.37500
O436        O  0.51821430  0.40664871  0.82514233    -0.57200
O437        O  0.56617237  0.38174221  0.85803187    -0.56000
C438        C  0.49415755  0.33529834  0.81243638     0.77800
O439        O  0.54646671  0.35501915  0.87933477    -0.58400
O440        O  0.49782885  0.38941269  0.85440517    -0.56800
O441        O  0.55496419  0.32997872  0.82539412    -0.56800
O442        O  0.50661271  0.35181510  0.80211594    -0.56000
O443        O  0.63069917  0.32181527  0.73493834    -0.57200
C444        C  0.57933390  0.32381890  0.79000991     0.75400
O445        O  0.59237733  0.25018531  0.74732338    -0.58400
C446        C  0.63700494  0.30636714  0.71880444     0.75400
C447        C  0.64619785  0.27638626  0.79389903     0.77800
Cd448      Cd  0.60833679  0.29123783  0.76002593     1.37500
O449        O  0.58830950  0.33125492  0.76996063    -0.57200
O450        O  0.64970442  0.29236882  0.77768331    -0.56000
C451        C  0.57550529  0.25910482  0.73394871     0.77800
O452        O  0.62535596  0.26596147  0.79369461    -0.58400
O453        O  0.58341358  0.30187123  0.79550148    -0.56800
O454        O  0.62947866  0.28484019  0.72176637    -0.56800
O455        O  0.57306203  0.28198607  0.73432442    -0.56000
O456        O  0.42994459  0.33011682  0.74756981    -0.57200
C457        C  0.47461868  0.26362033  0.72970222     0.75400
O458        O  0.46200724  0.30546427  0.80620642    -0.58400
C459        C  0.40950543  0.32166468  0.74027278     0.75400
C460        C  0.41410524  0.25822201  0.78942990     0.77800
Cd461      Cd  0.44590510  0.29179997  0.76461003     1.37500
O462        O  0.46295999  0.28230352  0.72266312    -0.57200
O463        O  0.43453685  0.25169000  0.78019371    -0.56000
C464        C  0.47750406  0.32020926  0.79739773     0.77800
O465        O  0.40940173  0.28079563  0.78917227    -0.58400
O466        O  0.47316595  0.25857131  0.75221082    -0.56800
O467        O  0.40652531  0.29902813  0.74274227    -0.56800
O468        O  0.47831657  0.32144218  0.77431778    -0.56000
O469        O  0.89832015  0.23308417  0.00380197    -0.57200
C470        C  0.83074418  0.24748258  0.05167980     0.75400
O471        O  0.82217233  0.22192252  0.97983069    -0.58400
C472        C  0.90007810  0.22118595  0.98384285     0.75400
C473        C  0.85580071  0.17300778  0.03934193     0.77800
Cd474      Cd  0.85457270  0.21944403  0.01342747     1.37500
O475        O  0.85357616  0.25109779  0.04721290    -0.57200
O476        O  0.87065767  0.19026981  0.04367173    -0.56000
C477        C  0.82281784  0.24509441  0.97992369     0.77800
O478        O  0.84065662  0.17647634  0.02183437    -0.58400
O479        O  0.82047082  0.23037993  0.04001264    -0.56800
O480        O  0.88141756  0.20844674  0.97824507    -0.56800
O481        O  0.83793918  0.25499462  0.99444543    -0.56000
O482        O  0.82444934  0.27965616  0.08152294    -0.57200
C483        C  0.80562849  0.32200192  0.13638047     0.75400
O484        O  0.74123666  0.30453044  0.08151232    -0.58400
C485        C  0.81576445  0.26263326  0.06850335     0.75400
C486        C  0.75545567  0.26019374  0.13112738     0.77800
Cd487      Cd  0.78249505  0.29196501  0.09914786     1.37500
O488        O  0.79922307  0.33046818  0.11578227    -0.57200
O489        O  0.75509065  0.28299342  0.13420853    -0.56000
C490        C  0.75010571  0.32107715  0.06813278     0.77800
O491        O  0.76638749  0.25250852  0.11212979    -0.58400
O492        O  0.80360621  0.29923822  0.13892302    -0.56800
O493        O  0.79271233  0.25946751  0.06991986    -0.56800
O494        O  0.77325290  0.32383386  0.06907799    -0.56000
O495        O  0.66675602  0.35188542  0.00580837    -0.57200
C496        C  0.73495820  0.33632240  0.05180410     0.75400
O497        O  0.74259277  0.36515179  0.98372793    -0.58400
C498        C  0.66490646  0.36494839  0.98663980     0.75400
C499        C  0.70748652  0.41021785  0.04437173     0.77800
Cd500      Cd  0.70969638  0.36556531  0.01605848     1.37500
O501        O  0.71196700  0.33289428  0.04809965    -0.57200
O502        O  0.69333625  0.39230389  0.04830663    -0.56000
C503        C  0.73958538  0.34251235  0.97969878     0.77800
O504        O  0.72218969  0.40812482  0.02627627    -0.58400
O505        O  0.74501365  0.35352004  0.04017163    -0.56800
O506        O  0.68304033  0.37879810  0.98213727    -0.56800
O507        O  0.72272112  0.33189091  0.99157857    -0.56000
O508        O  0.77380230  0.33654731  0.95205571    -0.57200
C509        C  0.82925199  0.31295485  0.90995095     0.75400
O510        O  0.79546425  0.25339227  0.94572577    -0.58400
C511        C  0.75492236  0.32821687  0.96278207     0.75400
C512        C  0.75551032  0.28314554  0.89010494     0.77800
Cd513      Cd  0.78465385  0.29631866  0.93245597     1.37500
O514        O  0.80940259  0.32510589  0.90799423    -0.57200
O515        O  0.77343967  0.29771324  0.88915774    -0.56000
C516        C  0.80764619  0.26085046  0.96412302     0.77800
O517        O  0.75154996  0.27325360  0.91067909    -0.58400
O518        O  0.82859778  0.29443282  0.92357972    -0.56800
O519        O  0.74999216  0.30611730  0.95897551    -0.56800
O520        O  0.80732969  0.28349845  0.96812381    -0.56000
O521        O  0.06677647  0.34118469  0.69102301    -0.57200
C522        C  0.00049498  0.37502060  0.64651694     0.75400
O523        O  0.00119660  0.37108007  0.72171207    -0.58400
C524        C  0.06789671  0.34326411  0.71430279     0.75400
C525        C  0.06196464  0.41630193  0.68841705     0.77800
Cd526      Cd  0.03275039  0.37251748  0.68871637     1.37500
O527        O  0.01869351  0.36022199  0.64638524    -0.57200
O528        O  0.06603074  0.39853587  0.67408270    -0.56000
C529        C  0.99711770  0.34856935  0.71786079     0.77800
O530        O  0.04331467  0.41443290  0.70249670    -0.58400
O531        O  0.99880259  0.38891035  0.66501516    -0.56800
O532        O  0.05388466  0.35885075  0.72425008    -0.56800
O533        O  0.00835374  0.33852046  0.70016562    -0.56000
O534        O  0.06593497  0.25729179  0.83423078    -0.57200
C535        C  0.00084628  0.21868574  0.87503496     0.75400
O536        O  0.00192414  0.22898000  0.79968742    -0.58400
C537        C  0.07047829  0.25474059  0.81141545     0.75400
C538        C  0.06084499  0.17975485  0.83104714     0.77800
Cd539      Cd  0.03334864  0.22477666  0.83294692     1.37500
O540        O  0.01933574  0.23291043  0.87672805    -0.57200
O541        O  0.06518711  0.19640318  0.84658153    -0.56000
C542        C  0.99943550  0.25171082  0.80355207     0.77800
O543        O  0.04297575  0.18355108  0.81636216    -0.58400
O544        O  0.99860982  0.20748348  0.85484841    -0.56800
O545        O  0.05952184  0.23769051  0.80030366    -0.56800
O546        O  0.01157884  0.26081658  0.82109834    -0.56000
O547        O  0.13167927  0.26888475  0.74125107    -0.57200
C548        C  0.08400249  0.32858003  0.73014550     0.75400
O549        O  0.09841583  0.28855185  0.80646991    -0.58400
C550        C  0.15400185  0.27436084  0.74539695     0.75400
C551        C  0.14033581  0.34256666  0.78791989     0.77800
Cd552      Cd  0.11448462  0.30304750  0.76533038     1.37500
O553        O  0.10177615  0.31563473  0.72243057    -0.57200
O554        O  0.11931937  0.34543493  0.77815876    -0.56000
C555        C  0.08642313  0.27111081  0.79724434     0.77800
O556        O  0.14832068  0.32094658  0.78927803    -0.58400
O557        O  0.08050095  0.32879600  0.75301078    -0.56800
O558        O  0.15773111  0.29417101  0.75649492    -0.56800
O559        O  0.08784864  0.26871479  0.77431677    -0.56000
O560        O  0.93539917  0.27880079  0.72751290    -0.57200
C561        C  0.98356838  0.26755562  0.78874345     0.75400
O562        O  0.96901924  0.34220601  0.75133460    -0.58400
C563        C  0.91305919  0.28085439  0.73405381     0.75400
C564        C  0.92398869  0.32210711  0.80218781     0.77800
Cd565      Cd  0.95207264  0.30133617  0.76318790     1.37500
O566        O  0.96755241  0.25962665  0.77385600    -0.57200
O567        O  0.94110781  0.30680270  0.80579399    -0.56000
C568        C  0.98107431  0.33377796  0.73337559     0.77800
O569        O  0.92120970  0.32963280  0.78041217    -0.58400
O570        O  0.98530764  0.29037210  0.79076832    -0.56800
O571        O  0.90924156  0.29083538  0.75453078    -0.56800
O572        O  0.97937587  0.31123401  0.72954402    -0.56000
O573        O  0.84250422  0.40511827  0.50101577    -0.57200
C574        C  0.82454509  0.33487001  0.54563073     0.75400
O575        O  0.84846278  0.33147089  0.47739021    -0.58400
C576        C  0.85863124  0.40663143  0.48405175     0.75400
C577        C  0.89765125  0.36086871  0.54110353     0.77800
Cd578      Cd  0.85315427  0.36177000  0.51128308     1.37500
O579        O  0.82108921  0.35781326  0.54418614    -0.57200
O580        O  0.87934834  0.37472133  0.54551282    -0.56000
C581        C  0.82550857  0.33614509  0.47457893     0.77800
O582        O  0.89596052  0.34753056  0.52205031    -0.58400
O583        O  0.84141102  0.32572471  0.53238719    -0.56800
O584        O  0.87218938  0.38802926  0.48073794    -0.56800
O585        O  0.81651624  0.35327170  0.48735838    -0.56000
O586        O  0.66351697  0.22840183  0.52522912    -0.57200
C587        C  0.72743072  0.24834990  0.47272057     0.75400
O588        O  0.74127198  0.21577049  0.53707339    -0.58400
C589        C  0.66455340  0.21316931  0.54277078     0.75400
C590        C  0.69980499  0.17573281  0.47515447     0.77800
Cd591      Cd  0.70529232  0.21680663  0.50792268     1.37500
O592        O  0.70479013  0.25195251  0.47833073    -0.57200
O593        O  0.68545286  0.19402841  0.47508745    -0.56000
C594        C  0.73996269  0.23871313  0.54039635     0.77800
O595        O  0.71657876  0.17558543  0.49152888    -0.58400
O596        O  0.73791186  0.22985067  0.48182789    -0.56800
O597        O  0.68372758  0.19983311  0.54346165    -0.56800
O598        O  0.72263377  0.25000911  0.52974097    -0.56000
O599        O  0.73313507  0.28128624  0.44392213    -0.57200
C600        C  0.75077078  0.32492859  0.39262369     0.75400
O601        O  0.81721957  0.30557384  0.44402146    -0.58400
C602        C  0.74217908  0.26476952  0.45734855     0.75400
C603        C  0.80026893  0.26100294  0.39476573     0.77800
Cd604      Cd  0.77524128  0.29406581  0.42761942     1.37500
O605        O  0.75727946  0.33281574  0.41342863    -0.57200
O606        O  0.78931077  0.25394583  0.41393112    -0.56000
C607        C  0.80928785  0.32207172  0.45814814     0.77800
O608        O  0.80130508  0.28377487  0.39154253    -0.58400
O609        O  0.75358968  0.30239878  0.38896581    -0.56800
O610        O  0.76542159  0.26279546  0.45728795    -0.56800
O611        O  0.78618926  0.32556931  0.45804606    -0.56000
O612        O  0.81956945  0.26016739  0.60372558    -0.57200
C613        C  0.75688209  0.25258190  0.55602565     0.75400
O614        O  0.75405663  0.31040727  0.61329635    -0.58400
C615        C  0.81830777  0.26776043  0.62558563     0.75400
C616        C  0.80981846  0.31863193  0.56119753     0.77800
Cd617      Cd  0.78272554  0.28335963  0.58978803     1.37500
O618        O  0.77172349  0.24291848  0.57116442    -0.57200
O619        O  0.81406077  0.29603893  0.56087452    -0.56000
C620        C  0.73861745  0.29346003  0.61705120     0.77800
O621        O  0.79239148  0.32581856  0.57495757    -0.58400
O622        O  0.75619259  0.27555740  0.55544320    -0.56800
O623        O  0.79997866  0.28105383  0.63085305    -0.56800
O624        O  0.74414599  0.27270175  0.60870496    -0.56000
C625        C  0.83774988  0.26283514  0.64382745    -0.04600
C626        C  0.86170971  0.25627092  0.63636714    -0.04600
C627        C  0.88117843  0.25620106  0.65321417    -0.22700
C628        C  0.87692971  0.26271245  0.67770826     0.19500
C629        C  0.85258507  0.26796103  0.68556607     0.16700
C630        C  0.83318653  0.26780968  0.66863470    -0.17800
C631        C  0.84821169  0.27459128  0.70994326    -0.19600
C632        C  0.86792715  0.27741993  0.72609401    -0.12100
C633        C  0.89234040  0.27352031  0.71817895     0.04500
C634        C  0.89667010  0.26533344  0.69415878    -0.24300
H635        H  0.86562586  0.25245400  0.61730211     0.09600
H636        H  0.89971291  0.25202355  0.64687204     0.13200
H637        H  0.81470021  0.27278387  0.67456268     0.13100
H638        H  0.82962592  0.27854633  0.71627260     0.12900
H639        H  0.86411384  0.28365760  0.74453752     0.13400
H640        H  0.91545601  0.26229183  0.68787653     0.15400
C641        C  0.91952126  0.36034459  0.55780351    -0.04600
C642        C  0.93733642  0.34168161  0.55648742    -0.04600
C643        C  0.95718412  0.34086043  0.57311766    -0.22700
C644        C  0.95974510  0.35878747  0.59133187     0.19500
C645        C  0.94202496  0.37769176  0.59261280     0.16700
C646        C  0.92215025  0.37831143  0.57600045    -0.17800
C647        C  0.94426421  0.39564266  0.61066443    -0.19600
C648        C  0.96363548  0.39482428  0.62751689    -0.12100
C649        C  0.98139838  0.37608481  0.62681802     0.04500
C650        C  0.97942613  0.35809468  0.60843890    -0.24300
H651        H  0.93571425  0.32749400  0.54282486     0.09600
H652        H  0.97045519  0.32612464  0.57180057     0.13200
H653        H  0.90861696  0.39283173  0.57733334     0.13100
H654        H  0.93085053  0.41026524  0.61192376     0.12900
H655        H  0.96451064  0.40887749  0.64139727     0.13400
H656        H  0.99279100  0.34339445  0.60776247     0.15400
C657        C  0.85158395  0.31869764  0.89573407    -0.04600
C658        C  0.87412453  0.30738028  0.90162306    -0.04600
C659        C  0.89410233  0.30856277  0.88555353    -0.22700
C660        C  0.89165197  0.32064518  0.86311984     0.19500
C661        C  0.86943727  0.33305008  0.85752692     0.16700
C662        C  0.84967877  0.33240021  0.87413092    -0.17800
C663        C  0.86680184  0.34450137  0.83473954    -0.19600
C664        C  0.88538162  0.34236232  0.81708010    -0.12100
C665        C  0.90697933  0.32904042  0.82210811     0.04500
C666        C  0.91041399  0.31911230  0.84555497    -0.24300
H667        H  0.87597177  0.29674441  0.91820157     0.09600
H668        H  0.91102891  0.29898470  0.89011938     0.13200
H669        H  0.83225624  0.34094730  0.86934590     0.13100
H670        H  0.84989941  0.35407200  0.83014202     0.12900
H671        H  0.88229889  0.35008210  0.79909574     0.13400
H672        H  0.92699023  0.30873372  0.84961735     0.15400
C673        C  0.98203089  0.21527138  0.89484268    -0.04600
C674        C  0.96232445  0.19914049  0.89061553    -0.04600
C675        C  0.94315878  0.19659081  0.90753152    -0.22700
C676        C  0.94305936  0.21009405  0.92928523     0.19500
C677        C  0.96297024  0.22588316  0.93438788     0.16700
C678        C  0.98243271  0.22839145  0.91713264    -0.17800
C679        C  0.96263934  0.23918840  0.95641998    -0.19600
C680        C  0.94256127  0.23737592  0.97273972    -0.12100
C681        C  0.92233540  0.22218677  0.96746855     0.04500
C682        C  0.92304986  0.20833920  0.94572778    -0.24300
H683        H  0.96139051  0.18866959  0.87382883     0.09600
H684        H  0.92813798  0.18428788  0.90336000     0.13200
H685        H  0.99745385  0.24086025  0.92078418     0.13100
H686        H  0.97773558  0.25130229  0.96087488     0.12900
H687        H  0.94268501  0.24818212  0.98932527     0.13400
H688        H  0.90776023  0.19643381  0.94131695     0.15400
C689        C  0.71533025  0.29696783  0.63064104    -0.04600
C690        C  0.69610548  0.28018810  0.62723395    -0.04600
C691        C  0.67517963  0.28084716  0.64204097    -0.22700
C692        C  0.67333532  0.29804682  0.66085026     0.19500
C693        C  0.69187715  0.31589634  0.66367540     0.16700
C694        C  0.71271093  0.31546591  0.64825372    -0.17800
C695        C  0.68990125  0.33290794  0.68279169    -0.19600
C696        C  0.67076677  0.33105835  0.69996281    -0.12100
C697        C  0.65339571  0.31225296  0.69813703     0.04500
C698        C  0.65409747  0.29656820  0.67786792    -0.24300
H699        H  0.69757116  0.26602868  0.61348216     0.09600
H700        H  0.66100497  0.26722053  0.63950140     0.13200
H701        H  0.72745323  0.32846004  0.65095244     0.13100
H702        H  0.70379180  0.34682021  0.68517328     0.12900
H703        H  0.67047999  0.34335335  0.71547875     0.13400
H704        H  0.64056146  0.28217664  0.67621019     0.15400
C705        C  0.66514429  0.27126525  0.81266626    -0.04600
C706        C  0.65863714  0.26011338  0.83486342    -0.04600
C707        C  0.67573162  0.25848616  0.85401402    -0.22700
C708        C  0.69960029  0.26796700  0.85124591     0.19500
C709        C  0.70658752  0.27829323  0.82858740     0.16700
C710        C  0.68937538  0.27978517  0.80945642    -0.17800
C711        C  0.73034446  0.28791506  0.82576720    -0.19600
C712        C  0.74662367  0.28843677  0.84557929    -0.12100
C713        C  0.73956060  0.27911602  0.86849882     0.04500
C714        C  0.71623150  0.26824071  0.87101390    -0.24300
H715        H  0.64002888  0.25355960  0.83777805     0.09600
H716        H  0.67004222  0.25048390  0.87123623     0.13200
H717        H  0.69458856  0.28837903  0.79236767     0.13100
H718        H  0.73604687  0.29576741  0.80848481     0.12900
H719        H  0.76454565  0.29681523  0.84313992     0.13400
H720        H  0.71055785  0.26110381  0.88863242     0.15400
C721        C  0.58369070  0.37258007  0.89742956    -0.04600
C722        C  0.60237049  0.39011705  0.89454554    -0.04600
C723        C  0.62134583  0.39251572  0.91175379    -0.22700
C724        C  0.62224595  0.37739217  0.93236024     0.19500
C725        C  0.60348140  0.35993115  0.93589382     0.16700
C726        C  0.58424779  0.35765555  0.91844883    -0.17800
C727        C  0.60458390  0.34483934  0.95662792    -0.19600
C728        C  0.62419804  0.34677103  0.97338406    -0.12100
C729        C  0.64315568  0.36384483  0.96982887     0.04500
C730        C  0.64184065  0.37924416  0.94925325    -0.24300
H731        H  0.60252249  0.40193572  0.87870045     0.09600
H732        H  0.63552023  0.40605768  0.90875967     0.13200
H733        H  0.57007159  0.34403364  0.92099210     0.13100
H734        H  0.59042228  0.33132826  0.95974989     0.12900
H735        H  0.62472418  0.33461121  0.98895380     0.13400
H736        H  0.65628398  0.39249269  0.94614387     0.15400
C737        C  0.64487779  0.21089184  0.56189489    -0.04600
C738        C  0.64798593  0.19396631  0.58098457    -0.04600
C739        C  0.63054428  0.19191215  0.59975608    -0.22700
C740        C  0.60947613  0.20678781  0.60004192     0.19500
C741        C  0.60570323  0.22363016  0.58087064     0.16700
C742        C  0.62341560  0.22559122  0.56186978    -0.17800
C743        C  0.58447265  0.23844253  0.58135366    -0.19600
C744        C  0.56761943  0.23704542  0.60090296    -0.12100
C745        C  0.57155404  0.22076469  0.62038749     0.04500
C746        C  0.59243114  0.20538949  0.61949843    -0.24300
H747        H  0.66418028  0.18235799  0.58160864     0.09600
H748        H  0.63372524  0.17885072  0.61425935     0.13200
H749        H  0.62066468  0.23871354  0.54733764     0.13100
H750        H  0.58109732  0.25140477  0.56681078     0.12900
H751        H  0.55171838  0.24905313  0.60098854     0.13400
H752        H  0.59576779  0.19264901  0.63426226     0.15400
C753        C  0.41558107  0.08752818  0.69039499    -0.04600
C754        C  0.43351976  0.08486516  0.70888119    -0.04600
C755        C  0.45345389  0.10118937  0.71057263    -0.22700
C756        C  0.45580581  0.12047990  0.69381303     0.19500
C757        C  0.43816853  0.12273955  0.67485610     0.16700
C758        C  0.41841328  0.10636619  0.67326112    -0.17800
C759        C  0.44010682  0.14173047  0.65798503    -0.19600
C760        C  0.45886870  0.15886112  0.66016061    -0.12100
C761        C  0.47630426  0.15752015  0.67922648     0.04500
C762        C  0.47494695  0.13789608  0.69586806    -0.24300
H763        H  0.43181763  0.07054672  0.72235352     0.09600
H764        H  0.46675934  0.09898457  0.72524129     0.13200
H765        H  0.40485585  0.10867423  0.65882196     0.13100
H766        H  0.42677461  0.14363777  0.64329539     0.12900
H767        H  0.45939711  0.17356340  0.64700764     0.13400
H768        H  0.48819255  0.13659758  0.71070100     0.15400
C769        C  0.22641040  0.18089847  0.74055532    -0.04600
C770        C  0.20250102  0.17387192  0.73350732    -0.04600
C771        C  0.18385440  0.19125617  0.73052229    -0.22700
C772        C  0.18886372  0.21593850  0.73449031     0.19500
C773        C  0.21314455  0.22324401  0.74052258     0.16700
C774        C  0.23174316  0.20570077  0.74346500    -0.17800
C775        C  0.21817510  0.24786961  0.74465507    -0.19600
C776        C  0.19903479  0.26491756  0.74437627    -0.12100
C777        C  0.17459467  0.25764558  0.73978248     0.04500
C778        C  0.16978047  0.23325393  0.73384862    -0.24300
H779        H  0.19794874  0.15483717  0.73130715     0.09600
H780        H  0.16535369  0.18532289  0.72590011     0.13200
H781        H  0.25014233  0.21128898  0.74889413     0.13100
H782        H  0.23670899  0.25379447  0.74914626     0.12900
H783        H  0.20319263  0.28362396  0.74896604     0.13400
H784        H  0.15096928  0.22743537  0.73041889     0.15400
C785        C  0.34092457  0.16639506  0.79393547    -0.04600
C786        C  0.36498391  0.15821902  0.78867192    -0.04600
C787        C  0.38499794  0.17404864  0.79029109    -0.22700
C788        C  0.38118227  0.19844081  0.79668395     0.19500
C789        C  0.35729118  0.20645312  0.80352801     0.16700
C790        C  0.33737877  0.19019216  0.80263669    -0.17800
C791        C  0.35340776  0.23101916  0.80924938    -0.19600
C792        C  0.37249408  0.24781956  0.80631500    -0.12100
C793        C  0.39588773  0.24021722  0.79806728     0.04500
C794        C  0.40041106  0.21529487  0.79448319    -0.24300
H795        H  0.36816191  0.13988462  0.78210793     0.09600
H796        H  0.40322151  0.16756710  0.78512260     0.13200
H797        H  0.31884048  0.19667754  0.80664150     0.13100
H798        H  0.33522831  0.23748151  0.81462556     0.12900
H799        H  0.36857939  0.26690759  0.80925449     0.13400
H800        H  0.41838457  0.20920336  0.78808239     0.15400
C801        C  0.14362874  0.09344590  0.84326245    -0.04600
C802        C  0.14665933  0.11145530  0.86133304    -0.04600
C803        C  0.13068930  0.13135439  0.86271841    -0.22700
C804        C  0.11121315  0.13382239  0.84604767     0.19500
C805        C  0.10743256  0.11574834  0.82801742     0.16700
C806        C  0.12365680  0.09555888  0.82674227    -0.17800
C807        C  0.08778979  0.11854889  0.81137793    -0.19600
C808        C  0.07238012  0.13914535  0.81244565    -0.12100
C809        C  0.07628487  0.15732006  0.83017951     0.04500
C810        C  0.09572163  0.15433045  0.84701067    -0.24300
H811        H  0.16182144  0.11046757  0.87424559     0.09600
H812        H  0.13382697  0.14503782  0.87665738     0.13200
H813        H  0.12114980  0.08195709  0.81259620     0.13100
H814        H  0.08449001  0.10494975  0.79740343     0.12900
H815        H  0.05755948  0.14096494  0.79923592     0.13400
H816        H  0.09903361  0.16814565  0.86078787     0.15400
C817        C  0.15568097  0.36353642  0.79509788    -0.04600
C818        C  0.14702140  0.38728275  0.79090852    -0.04600
C819        C  0.16330642  0.40690271  0.79129805    -0.22700
C820        C  0.18853542  0.40302342  0.79563427     0.19500
C821        C  0.19704106  0.37951615  0.80191270     0.16700
C822        C  0.18046210  0.35996289  0.80198043    -0.17800
C823        C  0.22230961  0.37562525  0.80606977    -0.19600
C824        C  0.23922884  0.39431156  0.80194892    -0.12100
C825        C  0.23110650  0.41720608  0.79380011     0.04500
C826        C  0.20560133  0.42178916  0.79192015    -0.24300
H827        H  0.12796734  0.39052207  0.78576357     0.09600
H828        H  0.15642259  0.42486035  0.78672041     0.13200
H829        H  0.18732657  0.34172176  0.80533661     0.13100
H830        H  0.22913348  0.35777517  0.81111921     0.12900
H831        H  0.25877008  0.39038565  0.80369272     0.13400
H832        H  0.19910698  0.43944324  0.78580969     0.15400
C833        C  0.33617913  0.41316073  0.72809833    -0.04600
C834        C  0.36068886  0.42086853  0.72473052    -0.04600
C835        C  0.37988187  0.40398882  0.72297600    -0.22700
C836        C  0.37496041  0.37910611  0.72480165     0.19500
C837        C  0.35022560  0.37101515  0.72638170     0.16700
C838        C  0.33092041  0.38813069  0.72775827    -0.17800
C839        C  0.34544898  0.34604353  0.72830668    -0.19600
C840        C  0.36498496  0.32950835  0.73078674    -0.12100
C841        C  0.38955945  0.33772929  0.73129701     0.04500
C842        C  0.39441903  0.36238337  0.72695081    -0.24300
H843        H  0.36521169  0.44001275  0.72473787     0.09600
H844        H  0.39874645  0.41048144  0.72152604     0.13200
H845        H  0.31206796  0.38196356  0.73032783     0.13100
H846        H  0.32660840  0.33943853  0.72928394     0.12900
H847        H  0.36079254  0.31053593  0.73394210     0.13400
H848        H  0.41335644  0.36885941  0.72704515     0.15400
C849        C  0.14948712  0.49700022  0.67394671    -0.04600
C850        C  0.15025988  0.47940801  0.65521352    -0.04600
C851        C  0.13291851  0.46075811  0.65412998    -0.22700
C852        C  0.11428091  0.45912709  0.67178994     0.19500
C853        C  0.11280449  0.47677778  0.69058879     0.16700
C854        C  0.13042286  0.49572243  0.69155551    -0.17800
C855        C  0.09396659  0.47481845  0.70821542    -0.19600
C856        C  0.07705307  0.45550205  0.70730046    -0.12100
C857        C  0.07867874  0.43772962  0.68880343     0.04500
C858        C  0.09734548  0.43985042  0.67103483    -0.24300
H859        H  0.16464268  0.47979024  0.64142546     0.09600
H860        H  0.13430185  0.44739415  0.63959469     0.13200
H861        H  0.12965826  0.50899086  0.70622368     0.13100
H862        H  0.09245285  0.48807220  0.72282877     0.12900
H863        H  0.06295589  0.45424126  0.72132246     0.13400
H864        H  0.09890029  0.42631186  0.65666966     0.15400
C865        C  0.48375463  0.42910960  0.84265347    -0.04600
C866        C  0.46700640  0.43054736  0.86232384    -0.04600
C867        C  0.44953998  0.44927131  0.86365370    -0.22700
C868        C  0.44825269  0.46692982  0.84522521     0.19500
C869        C  0.46538432  0.46619253  0.82568224     0.16700
C870        C  0.48312286  0.44734762  0.82456170    -0.17800
C871        C  0.46399930  0.48396784  0.80729704    -0.19600
C872        C  0.44536037  0.50173736  0.80781283    -0.12100
C873        C  0.42767204  0.50206825  0.82667777     0.04500
C874        C  0.42963088  0.48484150  0.84564258    -0.24300
H875        H  0.46713638  0.41690265  0.87659825     0.09600
H876        H  0.43666641  0.44962330  0.87886470     0.13200
H877        H  0.49586937  0.44646956  0.80926686     0.13100
H878        H  0.47700113  0.48380969  0.79219959     0.12900
H879        H  0.44432264  0.51476261  0.79300541     0.13400
H880        H  0.41622376  0.48492028  0.86040911     0.15400
C881        C  0.30787585  0.84596452  0.86397549    -0.04600
C882        C  0.31375189  0.86951060  0.87205627    -0.04600
C883        C  0.31363175  0.88904139  0.85568996    -0.22700
C884        C  0.30760311  0.88533022  0.83099053     0.19500
C885        C  0.30341085  0.86144039  0.82236888     0.16700
C886        C  0.30380175  0.84189968  0.83887040    -0.17800
C887        C  0.29721153  0.85769554  0.79773088    -0.19600
C888        C  0.29326751  0.87752849  0.78226501    -0.12100
C889        C  0.29594159  0.90140731  0.79103495     0.04500
C890        C  0.30416787  0.90516546  0.81515454    -0.24300
H891        H  0.31694848  0.87308725  0.89129977     0.09600
H892        H  0.31705087  0.90720639  0.86260156     0.13200
H893        H  0.29940051  0.82376453  0.83242292     0.13100
H894        H  0.29421037  0.83949389  0.79073398     0.12900
H895        H  0.28722604  0.87420778  0.76364545     0.13400
H896        H  0.30624104  0.92353355  0.82209009     0.15400
C897        C  0.26000215  0.73159858  0.87369539    -0.04600
C898        C  0.26584437  0.70795927  0.88148553    -0.04600
C899        C  0.26568801  0.68864626  0.86495139    -0.22700
C900        C  0.26018334  0.69281196  0.84025028     0.19500
C901        C  0.25247965  0.71618551  0.83257645     0.16700
C902        C  0.25194241  0.73542311  0.84953833    -0.17800
C903        C  0.24730360  0.72027354  0.80773185    -0.19600
C904        C  0.25149307  0.70189086  0.79045234    -0.12100
C905        C  0.26075960  0.67915877  0.79780382     0.04500
C906        C  0.26401637  0.67443479  0.82287447    -0.24300
H907        H  0.27181854  0.70464212  0.90012500     0.09600
H908        H  0.27134193  0.67077841  0.87117677     0.13200
H909        H  0.24748874  0.75365345  0.84342642     0.13100
H910        H  0.24124080  0.73800135  0.80151931     0.12900
H911        H  0.24874604  0.70588675  0.77122122     0.13400
H912        H  0.27094932  0.65687274  0.82875942     0.15400
C913        C  0.20951008  0.99236704  0.89734787    -0.04600
C914        C  0.22976520  0.99265371  0.91351825    -0.04600
C915        C  0.23208293  0.97507762  0.93202815    -0.22700
C916        C  0.21415858  0.95685633  0.93479098     0.19500
C917        C  0.19372826  0.95649348  0.91865283     0.16700
C918        C  0.19155208  0.97413464  0.90015312    -0.17800
C919        C  0.17584114  0.93832434  0.92106660    -0.19600
C920        C  0.17823478  0.92047493  0.93905384    -0.12100
C921        C  0.19847985  0.92036445  0.95521409     0.04500
C922        C  0.21637377  0.93883425  0.95311283    -0.24300
H923        H  0.24400011  0.00631623  0.91167305     0.09600
H924        H  0.24797281  0.97566137  0.94408367     0.13200
H925        H  0.17589542  0.97352488  0.88779046     0.13100
H926        H  0.16007382  0.93775312  0.90885365     0.12900
H927        H  0.16420897  0.90652035  0.94015929     0.13400
H928        H  0.23222348  0.93883861  0.96524897     0.15400
C929        C  0.35911275  0.65900658  0.95523296    -0.04600
C930        C  0.34099314  0.64095905  0.95813340    -0.04600
C931        C  0.33903829  0.62173646  0.94130522    -0.22700
C932        C  0.35518525  0.62015073  0.92120736     0.19500
C933        C  0.37372736  0.63798488  0.91842002     0.16700
C934        C  0.37560339  0.65715560  0.93538003    -0.17800
C935        C  0.38989090  0.63664886  0.89844716    -0.19600
C936        C  0.38751792  0.61812120  0.88113135    -0.12100
C937        C  0.36899120  0.60035440  0.88331875     0.04500
C938        C  0.35294281  0.60135261  0.90365820    -0.24300
H939        H  0.32799906  0.64194272  0.97319126     0.09600
H940        H  0.32469235  0.60829305  0.94384512     0.13200
H941        H  0.38968755  0.67088892  0.93284334     0.13100
H942        H  0.40423415  0.65013054  0.89603128     0.12900
H943        H  0.40017951  0.61788430  0.86576849     0.13400
H944        H  0.33852132  0.58787139  0.90558227     0.15400
C945        C  0.16459940  0.75390186  0.19672732    -0.04600
C946        C  0.15589536  0.75447263  0.17246135    -0.04600
C947        C  0.17238913  0.75450840  0.15277683    -0.22700
C948        C  0.19793342  0.75401355  0.15697095     0.19500
C949        C  0.20691363  0.75154852  0.18114842     0.16700
C950        C  0.19016949  0.75132800  0.20090580    -0.17800
C951        C  0.23253139  0.75100002  0.18521977    -0.19600
C952        C  0.24899743  0.75482826  0.16580518    -0.12100
C953        C  0.24013398  0.75914450  0.14199390     0.04500
C954        C  0.21457124  0.75756317  0.13756349    -0.24300
H955        H  0.13634125  0.75637566  0.16867624     0.09600
H956        H  0.16517859  0.75617183  0.13433963     0.13200
H957        H  0.19713287  0.75079178  0.21949948     0.13100
H958        H  0.23979514  0.74883745  0.20356787     0.12900
H959        H  0.26860320  0.75576488  0.16969432     0.13400
H960        H  0.20747768  0.76064555  0.11926160     0.15400
C961        C  0.08055461  0.86363167  0.11850942    -0.04600
C962        C  0.09816762  0.88233448  0.12003202    -0.04600
C963        C  0.11645452  0.88491024  0.10230066    -0.22700
C964        C  0.11774617  0.86878113  0.08254066     0.19500
C965        C  0.09991206  0.85021128  0.08012982     0.16700
C966        C  0.08123266  0.84778314  0.09812772    -0.17800
C967        C  0.10162926  0.83413835  0.06011988    -0.19600
C968        C  0.12123385  0.83600267  0.04330831    -0.12100
C969        C  0.13939008  0.85404756  0.04612911     0.04500
C970        C  0.13710243  0.87064897  0.06558267    -0.24300
H971        H  0.09813005  0.89491099  0.13530706     0.09600
H972        H  0.12994070  0.89929206  0.10434568     0.13200
H973        H  0.06782037  0.83327283  0.09666008     0.13100
H974        H  0.08814037  0.81981735  0.05776676     0.12900
H975        H  0.12249356  0.82300472  0.02844370     0.13400
H976        H  0.15085588  0.88473762  0.06800730     0.15400
C977        C  0.81205211  0.16874048  0.32225032    -0.04600
C978        C  0.80707211  0.16052500  0.34612930    -0.04600
C979        C  0.80678354  0.17673999  0.36579643    -0.22700
C980        C  0.81121227  0.20149866  0.36191065     0.19500
C981        C  0.81785976  0.20971925  0.33829249     0.16700
C982        C  0.81859570  0.19318912  0.31865184    -0.17800
C983        C  0.82197125  0.23458540  0.33444897    -0.19600
C984        C  0.81777990  0.25132040  0.35333997    -0.12100
C985        C  0.80967541  0.24340218  0.37644935     0.04500
C986        C  0.80749328  0.21833823  0.38085822    -0.24300
H987        H  0.80211006  0.14176468  0.34943529     0.09600
H988        H  0.80182157  0.17010354  0.38384266     0.13200
H989        H  0.82246736  0.19972997  0.30031037     0.13100
H990        H  0.82723516  0.24122380  0.31649703     0.12900
H991        H  0.81967532  0.27052327  0.34950495     0.13400
H992        H  0.80134160  0.21197763  0.39864890     0.15400
C993        C  0.74611407  0.24322685  0.14987138    -0.04600
C994        C  0.74125010  0.25156563  0.17374944    -0.04600
C995        C  0.74032608  0.23519013  0.19330399    -0.22700
C996        C  0.74448316  0.21032882  0.18921396     0.19500
C997        C  0.74675003  0.20164765  0.16491727     0.16700
C998        C  0.74704531  0.21811257  0.14538287    -0.17800
C999        C  0.75100364  0.17689775  0.16066967    -0.19600
C1000       C  0.75530769  0.16124952  0.18027039    -0.12100
C1001       C  0.75515978  0.17001639  0.20447082     0.04500
C1002       C  0.74843902  0.19435373  0.20891301    -0.24300
H1003       H  0.74019577  0.27085579  0.17762051     0.09600
H1004       H  0.73814166  0.24216260  0.21175829     0.13200
H1005       H  0.75045861  0.21147882  0.12696038     0.13100
H1006       H  0.75249553  0.16990186  0.14214787     0.12900
H1007       H  0.76004040  0.14250054  0.17637089     0.13400
H1008       H  0.74804165  0.20125707  0.22752573     0.15400
C1009       C  0.89355190  0.83616826  0.28548030    -0.04600
C1010       C  0.86877332  0.82862859  0.28629319    -0.04600
C1011       C  0.84969730  0.84567669  0.28855807    -0.22700
C1012       C  0.85510387  0.87054156  0.29006091     0.19500
C1013       C  0.88002214  0.87815728  0.29087155     0.16700
C1014       C  0.89907618  0.86090855  0.28875114    -0.17800
C1015       C  0.88544841  0.90301975  0.29218589    -0.19600
C1016       C  0.86647794  0.92024035  0.29077621    -0.12100
C1017       C  0.84175256  0.91287560  0.28841714     0.04500
C1018       C  0.83610485  0.88795832  0.28917261    -0.24300
H1019       H  0.86405306  0.80967179  0.28378305     0.09600
H1020       H  0.83070542  0.83949741  0.28800987     0.13200
H1021       H  0.91814553  0.86690169  0.28824680     0.13100
H1022       H  0.90443918  0.90917757  0.29303450     0.12900
H1023       H  0.87125878  0.93933280  0.29032205     0.13400
H1024       H  0.81710031  0.88206481  0.28719239     0.15400
C1025       C  0.93049111  0.99608511  0.19151021    -0.04600
C1026       C  0.94797368  0.99627526  0.21061153    -0.04600
C1027       C  0.96648273  0.97826938  0.21196960    -0.22700
C1028       C  0.96787556  0.95970179  0.19425003     0.19500
C1029       C  0.95070873  0.95981082  0.17473693     0.16700
C1030       C  0.93234212  0.97787896  0.17347705    -0.17800
C1031       C  0.95173551  0.94151309  0.15694670    -0.19600
C1032       C  0.96912791  0.92285092  0.15867905    -0.12100
C1033       C  0.98609578  0.92194600  0.17817878     0.04500
C1034       C  0.98563779  0.94076720  0.19583213    -0.24300
H1035       H  0.94699160  0.01000948  0.22480826     0.09600
H1036       H  0.97943576  0.97864273  0.22709780     0.13200
H1037       H  0.91909178  0.97742283  0.15859463     0.13100
H1038       H  0.93876745  0.94138832  0.14182311     0.12900
H1039       H  0.96903255  0.90882191  0.14474738     0.13400
H1040       H  0.99853588  0.94033634  0.21101313     0.15400
C1041       C  0.87049739  0.09042420  0.12473685    -0.04600
C1042       C  0.89060033  0.10656733  0.12426172    -0.04600
C1043       C  0.89224450  0.12480304  0.10661345    -0.22700
C1044       C  0.87376298  0.12753297  0.08889484     0.19500
C1045       C  0.85377507  0.11105915  0.08836195     0.16700
C1046       C  0.85226978  0.09244583  0.10627078    -0.17800
C1047       C  0.83541837  0.11406749  0.07034036    -0.19600
C1048       C  0.83647252  0.13359721  0.05372566    -0.12100
C1049       C  0.85586671  0.15056711  0.05477833     0.04500
C1050       C  0.87470229  0.14698388  0.07220290    -0.24300
H1051       H  0.90500164  0.10545936  0.13799090     0.09600
H1052       H  0.90777491  0.13716464  0.10719414     0.13200
H1053       H  0.83661989  0.08020887  0.10633985     0.13100
H1054       H  0.81995622  0.10164653  0.06943093     0.12900
H1055       H  0.82169761  0.13584168  0.04053521     0.13400
H1056       H  0.88986127  0.15977022  0.07325660     0.15400
C1057       C  0.70935788  0.08633945  0.39575618    -0.04600
C1058       C  0.72780942  0.08384667  0.41372820    -0.04600
C1059       C  0.72927607  0.10025554  0.43338443    -0.22700
C1060       C  0.71224247  0.11947042  0.43556067     0.19500
C1061       C  0.69321396  0.12172832  0.41796102     0.16700
C1062       C  0.69189748  0.10523736  0.39826022    -0.17800
C1063       C  0.67606756  0.14075896  0.42005213    -0.19600
C1064       C  0.67803068  0.15773564  0.43901239    -0.12100
C1065       C  0.69717167  0.15616820  0.45640407     0.04500
C1066       C  0.71412718  0.13670166  0.45469963    -0.24300
H1067       H  0.74152401  0.06953956  0.41226474     0.09600
H1068       H  0.74397356  0.09811963  0.44668583     0.13200
H1069       H  0.67750900  0.10741721  0.38461602     0.13100
H1070       H  0.66130005  0.14274101  0.40679367     0.12900
H1071       H  0.66468085  0.17242967  0.43978797     0.13400
H1072       H  0.72901648  0.13523726  0.46789428     0.15400
C1073       C  0.74261916  0.34143647  0.37289444    -0.04600
C1074       C  0.74120970  0.33285813  0.34866260    -0.04600
C1075       C  0.74021316  0.34915031  0.32908865    -0.22700
C1076       C  0.74076590  0.37424516  0.33347306     0.19500
C1077       C  0.73994481  0.38297271  0.35784647     0.16700
C1078       C  0.74051457  0.36649434  0.37739788    -0.17800
C1079       C  0.74062016  0.40803168  0.36229005    -0.19600
C1080       C  0.74431958  0.42418260  0.34297935    -0.12100
C1081       C  0.74711345  0.41555193  0.31888660     0.04500
C1082       C  0.74403398  0.39064626  0.31408498    -0.24300
H1083       H  0.74261466  0.31360361  0.34473092     0.09600
H1084       H  0.74054881  0.34212017  0.31052932     0.13200
H1085       H  0.74138923  0.37329371  0.39604571     0.13100
H1086       H  0.73972057  0.41505849  0.38084169     0.12900
H1087       H  0.74629776  0.44333633  0.34709149     0.13400
H1088       H  0.74603883  0.38381531  0.29554051     0.15400
C1089       C  0.81303358  0.41271375  0.21153110    -0.04600
C1090       C  0.81770175  0.42091103  0.18759870    -0.04600
C1091       C  0.82041715  0.40440315  0.16830569    -0.22700
C1092       C  0.81831367  0.37937893  0.17252554     0.19500
C1093       C  0.81555055  0.37080113  0.19677157     0.16700
C1094       C  0.81318065  0.38753251  0.21617352    -0.17800
C1095       C  0.81351344  0.34572388  0.20091561    -0.19600
C1096       C  0.81223487  0.32951558  0.18116385    -0.12100
C1097       C  0.81301691  0.33810498  0.15691571     0.04500
C1098       C  0.81719859  0.36297664  0.15279998    -0.24300
H1099       H  0.81794777  0.44016550  0.18353901     0.09600
H1100       H  0.82286599  0.41129400  0.14986306     0.13200
H1101       H  0.80970759  0.38093436  0.23458057     0.13100
H1102       H  0.81161969  0.33874369  0.21939936     0.12900
H1103       H  0.80908455  0.31044927  0.18485715     0.13400
H1104       H  0.81799599  0.36981062  0.13418104     0.15400
C1105       C  0.90070311  0.73081714  0.22468800    -0.04600
C1106       C  0.90941166  0.70677881  0.22302045    -0.04600
C1107       C  0.89288923  0.68739425  0.22170251    -0.22700
C1108       C  0.86737310  0.69174766  0.22232047     0.19500
C1109       C  0.85841571  0.71591775  0.22199574     0.16700
C1110       C  0.87517021  0.73535294  0.22283415    -0.17800
C1111       C  0.83285765  0.72020628  0.22272698    -0.19600
C1112       C  0.81648050  0.70082843  0.22576250    -0.12100
C1113       C  0.82541170  0.67691768  0.22807392     0.04500
C1114       C  0.85080445  0.67239676  0.22515273    -0.24300
H1115       H  0.92900706  0.70283556  0.22417599     0.09600
H1116       H  0.90005733  0.66899881  0.22165258     0.13200
H1117       H  0.86824872  0.75381185  0.22405279     0.13100
H1118       H  0.82563971  0.73857643  0.22232807     0.12900
H1119       H  0.79696802  0.70475349  0.22797119     0.13400
H1120       H  0.85783143  0.65400685  0.22676428     0.15400
C1121       C  0.84752387  0.49952856  0.40948598    -0.04600
C1122       C  0.82618929  0.49778848  0.42409950    -0.04600
C1123       C  0.82449815  0.48024462  0.44269135    -0.22700
C1124       C  0.84415007  0.46408298  0.44716329     0.19500
C1125       C  0.86602668  0.46626549  0.43318716     0.16700
C1126       C  0.86759559  0.48393186  0.41457602    -0.17800
C1127       C  0.88569664  0.45017583  0.43746771    -0.19600
C1128       C  0.88338150  0.43144925  0.45460379    -0.12100
C1129       C  0.86148480  0.42848027  0.46815969     0.04500
C1130       C  0.84207174  0.44532221  0.46474384    -0.24300
H1131       H  0.81043878  0.50946362  0.42060430     0.09600
H1132       H  0.80756141  0.47895044  0.45319013     0.13200
H1133       H  0.88423426  0.48506570  0.40357960     0.13100
H1134       H  0.90268317  0.45165282  0.42706707     0.12900
H1135       H  0.89868204  0.41891958  0.45693149     0.13400
H1136       H  0.82503046  0.44321267  0.47494403     0.15400
C1137       C  0.90942772  0.59574826  0.35009488    -0.04600
C1138       C  0.90508564  0.61700764  0.36384335    -0.04600
C1139       C  0.92244077  0.63573943  0.36447728    -0.22700
C1140       C  0.94459806  0.63370458  0.35134352     0.19500
C1141       C  0.94952154  0.61232147  0.33779046     0.16700
C1142       C  0.93193075  0.59342251  0.33728064    -0.17800
C1143       C  0.97174199  0.61048984  0.32459538    -0.19600
C1144       C  0.98859579  0.62982834  0.32437995    -0.12100
C1145       C  0.98366206  0.65134136  0.33746378     0.04500
C1146       C  0.96166102  0.65293516  0.35118626    -0.24300
H1147       H  0.88795382  0.61941629  0.37383590     0.09600
H1148       H  0.91834546  0.65199673  0.37496800     0.13200
H1149       H  0.93553375  0.57720625  0.32656218     0.13100
H1150       H  0.97592475  0.59424807  0.31413551     0.12900
H1151       H  0.00536528  0.62806215  0.31369506     0.13400
H1152       H  0.95751436  0.66937689  0.36137355     0.15400
C1153       C  0.69420118  0.49092650  0.13198656    -0.04600
C1154       C  0.67654645  0.47234458  0.13436340    -0.04600
C1155       C  0.67506737  0.45354396  0.11719117    -0.22700
C1156       C  0.69126181  0.45277771  0.09718088     0.19500
C1157       C  0.70876870  0.47154078  0.09412287     0.16700
C1158       C  0.71008464  0.49058311  0.11149046    -0.17800
C1159       C  0.72498037  0.47056414  0.07403463    -0.19600
C1160       C  0.72420639  0.45098398  0.05752640    -0.12100
C1161       C  0.70716666  0.43199021  0.06068365     0.04500
C1162       C  0.69052777  0.43325757  0.08049824    -0.24300
H1163       H  0.66404471  0.47205742  0.14985103     0.09600
H1164       H  0.66148825  0.43935416  0.11981083     0.13200
H1165       H  0.72382374  0.50470990  0.10938646     0.13100
H1166       H  0.73853108  0.48474747  0.07129747     0.12900
H1167       H  0.73727218  0.45049684  0.04250749     0.13400
H1168       H  0.67728575  0.41878210  0.08326931     0.15400
C1169       C  0.65940768  0.73648429  0.29282351    -0.04600
C1170       C  0.64959656  0.71286678  0.29307712    -0.04600
C1171       C  0.66491918  0.69278349  0.29679422    -0.22700
C1172       C  0.69039192  0.69602071  0.29979061     0.19500
C1173       C  0.70014561  0.71976540  0.30168079     0.16700
C1174       C  0.68444216  0.73994175  0.29872109    -0.17800
C1175       C  0.72573703  0.72288712  0.30418155    -0.19600
C1176       C  0.74162732  0.70288750  0.30208667    -0.12100
C1177       C  0.73209396  0.67949383  0.29796680     0.04500
C1178       C  0.70640860  0.67599988  0.29853431    -0.24300
H1179       H  0.63026360  0.70979578  0.28897800     0.09600
H1180       H  0.65712114  0.67473059  0.29559386     0.13200
H1181       H  0.69213788  0.75809092  0.29867606     0.13100
H1182       H  0.73353868  0.74089733  0.30596496     0.12900
H1183       H  0.76138960  0.70598190  0.30204052     0.13400
H1184       H  0.69886357  0.65802078  0.29561338     0.15400
C1185       C  0.66827539  0.84674364  0.22646751    -0.04600
C1186       C  0.65908589  0.86981715  0.22002361    -0.04600
C1187       C  0.67500526  0.88961374  0.21746189    -0.22700
C1188       C  0.70045048  0.88670901  0.22127228     0.19500
C1189       C  0.71011229  0.86321152  0.22579698     0.16700
C1190       C  0.69399147  0.84335022  0.22826123    -0.17800
C1191       C  0.73559943  0.86022991  0.22924627    -0.19600
C1192       C  0.75111479  0.88046490  0.22987341    -0.12100
C1193       C  0.74144594  0.90408102  0.22728495     0.04500
C1194       C  0.71616217  0.90703036  0.22209653    -0.24300
H1195       H  0.63939194  0.87289863  0.21826121     0.09600
H1196       H  0.66727489  0.90739386  0.21361123     0.13200
H1197       H  0.70135559  0.82564318  0.23306964     0.13100
H1198       H  0.74339462  0.84236977  0.23253932     0.12900
H1199       H  0.77050773  0.87768853  0.23396647     0.13400
H1200       H  0.70851514  0.92515004  0.22001238     0.15400
C1201       C  0.33660064  0.83571917  0.13403523    -0.04600
C1202       C  0.32808365  0.84474534  0.15661482    -0.04600
C1203       C  0.34481529  0.85050870  0.17526718    -0.22700
C1204       C  0.37025198  0.84701545  0.17163077     0.19500
C1205       C  0.37899412  0.84028477  0.14815947     0.16700
C1206       C  0.36213004  0.83512199  0.12940266    -0.17800
C1207       C  0.40430710  0.83639028  0.14446918    -0.19600
C1208       C  0.42037971  0.83616384  0.16441609    -0.12100
C1209       C  0.41147782  0.84039033  0.18820249     0.04500
C1210       C  0.38675242  0.84762535  0.19151069    -0.24300
H1211       H  0.30846802  0.84570252  0.16048156     0.09600
H1212       H  0.33777354  0.85597243  0.19301103     0.13200
H1213       H  0.36889730  0.82852125  0.11192417     0.13100
H1214       H  0.41135162  0.83155825  0.12653659     0.12900
H1215       H  0.43945164  0.83086721  0.16147653     0.13400
H1216       H  0.37975470  0.85086479  0.20983031     0.15400
C1217       C  0.49144932  0.72523173  0.11447059    -0.04600
C1218       C  0.49496491  0.74356912  0.09688538    -0.04600
C1219       C  0.47951901  0.74515873  0.07623947    -0.22700
C1220       C  0.46030069  0.72837137  0.07271434     0.19500
C1221       C  0.45734615  0.70932770  0.08982074     0.16700
C1222       C  0.47282920  0.70789330  0.11044911    -0.17800
C1223       C  0.43845080  0.69235202  0.08647541    -0.19600
C1224       C  0.42193819  0.69471244  0.06700567    -0.12100
C1225       C  0.42380672  0.71409863  0.05030203     0.04500
C1226       C  0.44352031  0.73064112  0.05293866    -0.24300
H1227       H  0.50917549  0.75713887  0.09947448     0.09600
H1228       H  0.48227229  0.75982969  0.06332582     0.13200
H1229       H  0.46996960  0.69352706  0.12371179     0.13100
H1230       H  0.43603354  0.67753132  0.09929831     0.12900
H1231       H  0.40715215  0.68157862  0.06546331     0.13400
H1232       H  0.44525118  0.74567125  0.04026254     0.15400
C1233       C  0.64165778  0.59366814  0.18296664    -0.04600
C1234       C  0.64430045  0.61019914  0.16349132    -0.04600
C1235       C  0.62738288  0.62906692  0.15997444    -0.22700
C1236       C  0.60734105  0.63204555  0.17591367     0.19500
C1237       C  0.60399193  0.61546559  0.19537797     0.16700
C1238       C  0.62115764  0.59626271  0.19878392    -0.17800
C1239       C  0.58380126  0.61878444  0.21127932    -0.19600
C1240       C  0.56759950  0.63861193  0.20828491    -0.12100
C1241       C  0.57121933  0.65552342  0.18932107     0.04500
C1242       C  0.59098396  0.65174564  0.17295860    -0.24300
H1243       H  0.65976330  0.60876026  0.15096803     0.09600
H1244       H  0.63021758  0.64158585  0.14493913     0.13200
H1245       H  0.61887044  0.58377405  0.21393629     0.13100
H1246       H  0.58079564  0.60631136  0.22630888     0.12900
H1247       H  0.55260463  0.64105376  0.22119708     0.13400
H1248       H  0.59408243  0.66454017  0.15820119     0.15400
C1249       C  0.58227363  0.93067068  0.33882400    -0.04600
C1250       C  0.59759812  0.93140489  0.35960626    -0.04600
C1251       C  0.61597490  0.94895946  0.36185380    -0.22700
C1252       C  0.61959369  0.96605832  0.34325189     0.19500
C1253       C  0.60396512  0.96600945  0.32249605     0.16700
C1254       C  0.58520823  0.94839794  0.32048698    -0.17800
C1255       C  0.60788570  0.98316467  0.30388337    -0.19600
C1256       C  0.62739839  0.99979717  0.30558783    -0.12100
C1257       C  0.64332750  0.99955557  0.32593153     0.04500
C1258       C  0.63902892  0.98278009  0.34483945    -0.24300
H1259       H  0.59565968  0.91806197  0.37403908     0.09600
H1260       H  0.62773217  0.94881302  0.37793303     0.13200
H1261       H  0.57359014  0.94792507  0.30431594     0.13100
H1262       H  0.59614497  0.98343734  0.28780006     0.12900
H1263       H  0.63039854  0.01244002  0.29072029     0.13400
H1264       H  0.65115742  0.98237819  0.36065716     0.15400
C1265       C  0.33501391  0.77725865  0.37083131    -0.04600
C1266       C  0.35850683  0.76871369  0.37765646    -0.04600
C1267       C  0.37747773  0.76714249  0.36029446    -0.22700
C1268       C  0.37314925  0.77409878  0.33593490     0.19500
C1269       C  0.34910603  0.78122487  0.32872719     0.16700
C1270       C  0.33022043  0.78258287  0.34615951    -0.17800
C1271       C  0.34462686  0.78825924  0.30449820    -0.19600
C1272       C  0.36409621  0.78975169  0.28786901    -0.12100
C1273       C  0.38833675  0.78406110  0.29514266     0.04500
C1274       C  0.39261966  0.77536572  0.31899476    -0.24300
H1275       H  0.36257383  0.76459178  0.39662058     0.09600
H1276       H  0.39576854  0.76150418  0.36613524     0.13200
H1277       H  0.31206313  0.78905138  0.34074238     0.13100
H1278       H  0.32624171  0.79360137  0.29867505     0.12900
H1279       H  0.36031425  0.79635648  0.26956921     0.13400
H1280       H  0.41126551  0.77091387  0.32478750     0.15400
C1281       C  0.22037139  0.82295423  0.38054615    -0.04600
C1282       C  0.19745351  0.81418808  0.38872787    -0.04600
C1283       C  0.17784326  0.81130036  0.37250586    -0.22700
C1284       C  0.18065954  0.81738465  0.34780761     0.19500
C1285       C  0.20283818  0.82823763  0.33968096     0.16700
C1286       C  0.22266914  0.83099461  0.35616542    -0.17800
C1287       C  0.20518717  0.83469710  0.31491233    -0.19600
C1288       C  0.18652509  0.82878059  0.29812580    -0.12100
C1289       C  0.16531058  0.81625594  0.30587008     0.04500
C1290       C  0.16212857  0.81151225  0.33092633    -0.24300
H1291       H  0.19510650  0.80798907  0.40740200     0.09600
H1292       H  0.16084417  0.80323905  0.37906701     0.13200
H1293       H  0.24022818  0.83792174  0.34967603     0.13100
H1294       H  0.22186447  0.84338898  0.30834209     0.12900
H1295       H  0.18925574  0.83288738  0.27893453     0.13400
H1296       H  0.14568552  0.80216984  0.33718896     0.15400
C1297       C  0.32365630  0.74915294  0.63559221    -0.04600
C1298       C  0.32737471  0.75749408  0.65963984    -0.04600
C1299       C  0.33050545  0.74098966  0.67879234    -0.22700
C1300       C  0.32984146  0.71594326  0.67415397     0.19500
C1301       C  0.32858283  0.70747991  0.64971622     0.16700
C1302       C  0.32583110  0.72418577  0.63053310    -0.17800
C1303       C  0.32786260  0.68243509  0.64508401    -0.19600
C1304       C  0.32577194  0.66605898  0.66448376    -0.12100
C1305       C  0.32465986  0.67449193  0.68878261     0.04500
C1306       C  0.32823700  0.69933931  0.69354416    -0.24300
H1307       H  0.32600741  0.77666829  0.66393333     0.09600
H1308       H  0.33178414  0.74780148  0.69740266     0.13200
H1309       H  0.32327654  0.71760724  0.61196107     0.13100
H1310       H  0.32726573  0.67560672  0.62645268     0.12900
H1311       H  0.32341760  0.64694490  0.66036867     0.13400
H1312       H  0.32764696  0.70602139  0.71224795     0.15400
C1313       C  0.24678638  0.84455256  0.63493505    -0.04600
C1314       C  0.23926112  0.83649118  0.65817185    -0.04600
C1315       C  0.23355523  0.85325715  0.67665062    -0.22700
C1316       C  0.23571015  0.87829522  0.67223413     0.19500
C1317       C  0.24166079  0.88648062  0.64843551     0.16700
C1318       C  0.24665235  0.86958355  0.62986264    -0.17800
C1319       C  0.24447047  0.91139391  0.64401826    -0.19600
C1320       C  0.24354462  0.92790338  0.66341191    -0.12100
C1321       C  0.23925798  0.91984465  0.68743395     0.04500
C1322       C  0.23400907  0.89514021  0.69154089    -0.24300
H1323       H  0.23904104  0.81727415  0.66245084     0.09600
H1324       H  0.22885929  0.84663388  0.69473062     0.13200
H1325       H  0.25228753  0.87601923  0.61196875     0.13100
H1326       H  0.24892127  0.91795165  0.62585482     0.12900
H1327       H  0.24758226  0.94683756  0.65980378     0.13400
H1328       H  0.23089276  0.88870387  0.71003430     0.15400
C1329       C  0.20882806  0.66264873  0.55542411    -0.04600
C1330       C  0.19125144  0.66565962  0.57420311    -0.04600
C1331       C  0.18861401  0.64838638  0.59265015    -0.22700
C1332       C  0.20351324  0.62757076  0.59291256     0.19500
C1333       C  0.22126116  0.62400062  0.57423487     0.16700
C1334       C  0.22383246  0.64159191  0.55549980    -0.17800
C1335       C  0.23616415  0.60301284  0.57490122    -0.19600
C1336       C  0.23369553  0.58605001  0.59399087    -0.12100
C1337       C  0.21622261  0.58968286  0.61275636     0.04500
C1338       C  0.20106461  0.61048002  0.61183570    -0.24300
H1339       H  0.17944085  0.68157791  0.57477172     0.09600
H1340       H  0.17494616  0.65142071  0.60685270     0.13200
H1341       H  0.23753466  0.63901678  0.54124316     0.13100
H1342       H  0.24991889  0.59984322  0.56082044     0.12900
H1343       H  0.24572177  0.57028439  0.59427390     0.13400
H1344       H  0.18756769  0.61367758  0.62617224     0.15400
C1345       C  0.07421317  0.71914998  0.40051367    -0.04600
C1346       C  0.07439457  0.74012532  0.41527416    -0.04600
C1347       C  0.09205360  0.74295262  0.43389951    -0.22700
C1348       C  0.10994588  0.72486529  0.43813635     0.19500
C1349       C  0.10918953  0.70322842  0.42416008     0.16700
C1350       C  0.09128734  0.70043758  0.40564948    -0.17800
C1351       C  0.12703764  0.68514147  0.42817549    -0.19600
C1352       C  0.14616861  0.68890214  0.44496015    -0.12100
C1353       C  0.14775904  0.71066400  0.45843651     0.04500
C1354       C  0.12909637  0.72837212  0.45539237    -0.24300
H1355       H  0.06148912  0.75480353  0.41179113     0.09600
H1356       H  0.09219705  0.75963083  0.44445977     0.13200
H1357       H  0.09130931  0.68406598  0.39457881     0.13100
H1358       H  0.12665029  0.66835394  0.41778547     0.12900
H1359       H  0.16005618  0.67483279  0.44708949     0.13400
H1360       H  0.13004625  0.74522508  0.46563040     0.15400
C1361       C  0.48995198  0.86738804  0.39716134    -0.04600
C1362       C  0.49075782  0.84808947  0.41401615    -0.04600
C1363       C  0.47379332  0.84695056  0.43344065    -0.22700
C1364       C  0.45567141  0.86509186  0.43636108     0.19500
C1365       C  0.45519679  0.88485961  0.41985229     0.16700
C1366       C  0.47233259  0.88595005  0.40056922    -0.17800
C1367       C  0.43716356  0.90298352  0.42244723    -0.19600
C1368       C  0.41933977  0.90131683  0.44081490    -0.12100
C1369       C  0.41918127  0.88161631  0.45720138     0.04500
C1370       C  0.43769907  0.86362239  0.45507243    -0.24300
H1371       H  0.50413532  0.83355810  0.41184940     0.09600
H1372       H  0.47455971  0.83165686  0.44588768     0.13200
H1373       H  0.47149312  0.90100448  0.38780793     0.13100
H1374       H  0.43655841  0.91827312  0.40997768     0.12900
H1375       H  0.40539399  0.91544452  0.44198533     0.13400
H1376       H  0.43772052  0.84824471  0.46745002     0.15400
C1377       C  0.34794750  0.00702517  0.61713858    -0.04600
C1378       C  0.32967268  0.00972071  0.59899712    -0.04600
C1379       C  0.32874453  0.99371040  0.57889801    -0.22700
C1380       C  0.34604985  0.97468372  0.57662204     0.19500
C1381       C  0.36488006  0.97246477  0.59443017     0.16700
C1382       C  0.36575198  0.98857630  0.61433604    -0.17800
C1383       C  0.38226321  0.95370176  0.59254665    -0.19600
C1384       C  0.38066848  0.93672065  0.57368554    -0.12100
C1385       C  0.36168671  0.93800152  0.55612521     0.04500
C1386       C  0.34458907  0.95743438  0.55740300    -0.24300
H1387       H  0.31569940  0.02375994  0.60070006     0.09600
H1388       H  0.31418341  0.99588055  0.56545468     0.13200
H1389       H  0.38002359  0.98626757  0.62808103     0.13100
H1390       H  0.39686057  0.95182493  0.60600519     0.12900
H1391       H  0.39417266  0.92215610  0.57319976     0.13400
H1392       H  0.32984340  0.95869400  0.54403250     0.15400
loop_ 
_geom_bond_atom_site_label_1 
_geom_bond_atom_site_label_2 
_geom_bond_distance 
_geom_bond_site_symmetry_2 
_ccdc_geom_bond_type 
O1            C4   1.277       .  A
O1           Cd6   2.487       .  S
C2           O11   1.269       .  A
C2            O7   1.275       .  A
C2         C1385   1.490       .  S
O3            C9   1.276       .  A
O3           Cd6   2.496       .  S
C4           O12   1.267       .  A
C4           C41   1.465       .  S
C5           O10   1.275       .  A
C5            O8   1.270       .  A
C5         C1369   1.487       .  S
Cd6          O13   2.386       .  S
Cd6          O12   2.377       .  S
Cd6          O11   2.410       .  S
Cd6           O7   2.521       .  S
Cd6          O10   2.501       .  S
Cd6           O8   2.419       .  S
C9           O13   1.266       .  A
C9           C35   1.467       .  S
O14          C17   1.278       .  A
O14         Cd19   2.501       .  S
C15          O24   1.270       .  A
C15          O20   1.277       .  A
C15        C1329   1.491       .  S
O16          C22   1.278       .  A
O16         Cd19   2.480       .  S
C17          O25   1.268       .  A
C17          C48   1.471       .  S
C18          O23   1.275       .  A
C18          O21   1.271       .  A
C18        C1353   1.491       .  S
Cd19         O26   2.394       .  S
Cd19         O25   2.389       .  S
Cd19         O24   2.403       .  S
Cd19         O20   2.518       .  S
Cd19         O23   2.506       .  S
Cd19         O21   2.441       .  S
C22          O26   1.269       .  A
C22          C28   1.468       .  S
O27          C30   1.264       .  A
O27         Cd32   2.437       .  S
C28          O37   1.264       .  A
C28          O33   1.264       .  A
O29          C35   1.264       .  A
O29         Cd32   2.519       .  S
C30          O38   1.266       .  A
C30        C1313   1.478       .  S
C31          O36   1.265       .  A
C31          O34   1.266       .  A
C31        C1297   1.475       .  S
Cd32         O39   2.431       .  S
Cd32         O38   2.484       .  S
Cd32         O37   2.447       .  S
Cd32         O33   2.507       .  S
Cd32         O36   2.451       .  S
Cd32         O34   2.459       .  S
C35          O39   1.263       .  A
O40          C43   1.266       .  A
O40         Cd45   2.495       .  S
C41          O50   1.260       .  A
C41          O46   1.264       .  A
O42          C48   1.267       .  A
O42         Cd45   2.530       .  S
C43          O51   1.264       .  A
C43        C1281   1.478       .  S
C44          O49   1.268       .  A
C44          O47   1.264       .  A
C44        C1265   1.473       .  S
Cd45         O52   2.431       .  S
Cd45         O51   2.426       .  S
Cd45         O50   2.433       .  S
Cd45         O46   2.526       .  S
Cd45         O49   2.488       .  S
Cd45         O47   2.415       .  S
C48          O52   1.264       .  A
O53          C56   1.273       .  A
O53         Cd58   2.496       .  S
C54          O63   1.264       .  A
C54          O59   1.274       .  A
C54         C100   1.468       .  S
O55          C61   1.274       .  A
O55         Cd58   2.512       .  S
C56          O64   1.268       .  A
C56        C1361   1.488       .  S
C57          O62   1.273       .  A
C57          O60   1.267       .  A
C57        C1249   1.481       .  S
Cd58         O65   2.384       .  S
Cd58         O64   2.442       .  S
Cd58         O63   2.398       .  S
Cd58         O59   2.506       .  S
Cd58         O62   2.494       .  S
Cd58         O60   2.411       .  S
C61          O65   1.265       .  A
C61          C82   1.467       .  S
O66          C69   1.274       .  A
O66         Cd71   2.521       .  S
C67          O76   1.264       .  A
C67          O72   1.276       .  A
C67          C87   1.473       .  S
O68          C74   1.275       .  A
O68         Cd71   2.514       .  S
C69          O77   1.268       .  A
C69        C1241   1.493       .  S
C70          O75   1.273       .  A
C70          O73   1.268       .  A
C70        C1217   1.491       .  S
Cd71         O78   2.404       .  S
Cd71         O77   2.446       .  S
Cd71         O76   2.399       .  S
Cd71         O72   2.530       .  S
Cd71         O75   2.508       .  S
Cd71         O73   2.451       .  S
C74          O78   1.266       .  A
C74          C95   1.472       .  S
O79          C82   1.265       .  A
O79         Cd84   2.536       .  S
C80          O89   1.265       .  A
C80          O85   1.268       .  A
C80        C1209   1.473       .  S
O81          C87   1.267       .  A
O81         Cd84   2.533       .  S
C82          O90   1.261       .  A
C83          O88   1.264       .  A
C83          O86   1.263       .  A
C83        C1273   1.476       .  S
Cd84         O91   2.430       .  S
Cd84         O90   2.419       .  S
Cd84         O89   2.421       .  S
Cd84         O85   2.490       .  S
Cd84         O88   2.475       .  S
Cd84         O86   2.453       .  S
C87          O91   1.265       .  A
O92          C95   1.267       .  A
O92         Cd97   2.538       .  S
C93         O102   1.266       .  A
C93          O98   1.264       .  A
C93        C1185   1.484       .  S
O94         C100   1.264       .  A
O94         Cd97   2.529       .  S
C95         O103   1.262       .  A
C96         O101   1.264       .  A
C96          O99   1.267       .  A
C96        C1169   1.476       .  S
Cd97        O104   2.435       .  S
Cd97        O103   2.434       .  S
Cd97        O102   2.500       .  S
Cd97         O98   2.462       .  S
Cd97        O101   2.434       .  S
Cd97         O99   2.489       .  S
C100        O104   1.261       .  A
O105        C108   1.276       .  A
O105       Cd110   2.503       .  S
C106        O115   1.269       .  A
C106        O111   1.278       .  A
C106        C139   1.472       .  S
O107        C113   1.277       .  A
O107       Cd110   2.521       .  S
C108        O116   1.271       .  A
C108       C1153   1.492       .  S
C109        O114   1.279       .  A
C109        O112   1.268       .  A
C109        C152   1.471       .  S
Cd110       O117   2.414       .  S
Cd110       O116   2.434       .  S
Cd110       O115   2.402       .  S
Cd110       O111   2.493       .  S
Cd110       O114   2.504       .  S
Cd110       O112   2.381       .  S
C113        O117   1.270       .  A
C113       C1233   1.493       .  S
O118        C121   1.275       .  A
O118       Cd123   2.498       .  S
C119        O128   1.266       .  A
C119        O124   1.277       .  A
C119        C145   1.472       .  S
O120        C126   1.275       .  A
O120       Cd123   2.510       .  S
C121        O129   1.269       .  A
C121       C1137   1.489       .  S
C122        O127   1.277       .  A
C122        O125   1.267       .  A
C122        C132   1.472       .  S
Cd123       O130   2.465       .  S
Cd123       O129   2.429       .  S
Cd123       O128   2.380       .  S
Cd123       O124   2.521       .  S
Cd123       O127   2.502       .  S
Cd123       O125   2.407       .  S
C126        O130   1.270       .  A
C126       C1121   1.494       .  S
O131        C134   1.265       .  A
O131       Cd136   2.467       .  S
C132        O141   1.264       .  A
C132        O137   1.263       .  A
O133        C139   1.265       .  A
O133       Cd136   2.533       .  S
C134        O142   1.266       .  A
C134       C1177   1.477       .  S
C135        O140   1.266       .  A
C135        O138   1.266       .  A
C135       C1113   1.478       .  S
Cd136       O143   2.454       .  S
Cd136       O142   2.454       .  S
Cd136       O141   2.458       .  S
Cd136       O137   2.517       .  S
Cd136       O140   2.458       .  S
Cd136       O138   2.474       .  S
C139        O143   1.262       .  A
O144        C147   1.266       .  A
O144       Cd149   2.467       .  S
C145        O154   1.260       .  A
C145        O150   1.266       .  A
O146        C152   1.264       .  A
O146       Cd149   2.537       .  S
C147        O155   1.266       .  A
C147       C1089   1.484       .  S
C148        O153   1.263       .  A
C148        O151   1.267       .  A
C148       C1081   1.476       .  S
Cd149       O156   2.442       .  S
Cd149       O155   2.487       .  S
Cd149       O154   2.424       .  S
Cd149       O150   2.560       .  S
Cd149       O153   2.437       .  S
Cd149       O151   2.477       .  S
C152        O156   1.262       .  A
O157        C160   1.275       .  A
O157       Cd162   2.510       .  S
C158        O167   1.268       .  A
C158        O163   1.273       .  A
C158       C1257   1.483   1_545  S
O159        C165   1.275       .  A
O159       Cd162   2.516       .  S
C160        O168   1.264       .  A
C160        C197   1.464       .  S
C161        O166   1.273       .  A
C161        O164   1.269       .  A
C161       C1057   1.491       .  S
Cd162       O169   2.398       .  S
Cd162       O168   2.364       .  S
Cd162       O167   2.428       .  S
Cd162       O163   2.488       .  S
Cd162       O166   2.499       .  S
Cd162       O164   2.457       .  S
C165        O169   1.265       .  A
C165        C191   1.471   1_545  S
O170        C173   1.273       .  A
O170       Cd175   2.541       .  S
C171        O180   1.266       .  A
C171        O176   1.276       .  A
C171        C184   1.470   1_545  S
O172        C178   1.274       .  A
O172       Cd175   2.524       .  S
C173        O181   1.268       .  A
C173       C1041   1.495       .  S
C174        O179   1.276       .  A
C174        O177   1.264       .  A
C174        C204   1.472       .  S
Cd175       O182   2.445       .  S
Cd175       O181   2.434       .  S
Cd175       O180   2.388       .  S
Cd175       O176   2.513       .  S
Cd175       O179   2.536       .  S
Cd175       O177   2.386       .  S
C178        O182   1.269       .  A
C178       C1025   1.494   1_545  S
O183        C186   1.266       .  A
O183       Cd188   2.490       .  S
C184        O193   1.262       .  A
C184        O189   1.267       .  A
O185        C191   1.266       .  A
O185       Cd188   2.530       .  S
C186        O194   1.264       .  A
C186       C1193   1.480       .  S
C187        O192   1.266       .  A
C187        O190   1.265       .  A
C187       C1017   1.477       .  S
Cd188       O195   2.435       .  S
Cd188       O194   2.453       .  S
Cd188       O193   2.420       .  S
Cd188       O189   2.539       .  S
Cd188       O192   2.466       .  S
Cd188       O190   2.452       .  S
C191        O195   1.263       .  A
O196        C199   1.263       .  A
O196       Cd201   2.441       .  S
C197        O206   1.262       .  A
C197        O202   1.266       .  A
O198        C204   1.267       .  A
O198       Cd201   2.551       .  S
C199        O207   1.266       .  A
C199       C1001   1.479       .  S
C200        O205   1.268       .  A
C200        O203   1.263       .  A
C200        C977   1.479       .  S
Cd201       O208   2.418       .  S
Cd201       O207   2.497       .  S
Cd201       O206   2.401       .  S
Cd201       O202   2.528       .  S
Cd201       O205   2.488       .  S
Cd201       O203   2.437       .  S
C204        O208   1.262       .  A
O209        C212   1.275       .  A
O209       Cd214   2.524       .  S
C210        O219   1.267       .  A
C210        O215   1.276       .  A
C210        C230   1.472       .  S
O211        C217   1.278       .  A
O211       Cd214   2.508   1_655  S
C212        O220   1.269   1_455  A
C212       C1033   1.492   1_455  S
C213        O218   1.275       .  A
C213        O216   1.269       .  A
C213        C961   1.491       .  S
Cd214       O221   2.378       .  S
Cd214       O220   2.420   1_455  S
Cd214       O219   2.404       .  S
Cd214       O215   2.502       .  S
Cd214       O218   2.532       .  S
Cd214       O216   2.409       .  S
C217        O221   1.266   1_655  A
C217        C249   1.469       .  S
O222        C225   1.268       .  A
O222       Cd227   2.556       .  S
C223        O232   1.265       .  A
C223        O228   1.264       .  A
C223        C945   1.485       .  S
O224        C230   1.266       .  A
O224       Cd227   2.530       .  S
C225        O233   1.263       .  A
C225        C243   1.477       .  S
C226        O231   1.267       .  A
C226        O229   1.265       .  A
C226       C1289   1.481       .  S
Cd227       O234   2.445       .  S
Cd227       O233   2.435       .  S
Cd227       O232   2.499       .  S
Cd227       O228   2.471       .  S
Cd227       O231   2.500       .  S
Cd227       O229   2.446       .  S
C230        O234   1.263       .  A
O235        C238   1.273       .  A
O235       Cd240   2.511       .  S
C236        O245   1.266   1_655  A
C236        O241   1.275       .  A
C236        C252   1.472       .  S
O237        C243   1.275       .  A
O237       Cd240   2.540       .  S
C238        O246   1.268       .  A
C238       C1345   1.492       .  S
C239        O244   1.274       .  A
C239        O242   1.268   1_455  A
C239       C1145   1.490   1_455  S
Cd240       O247   2.402       .  S
Cd240       O246   2.462       .  S
Cd240       O245   2.400       .  S
Cd240       O241   2.516   1_455  S
Cd240       O244   2.506       .  S
Cd240       O242   2.449   1_455  S
C243        O247   1.264       .  A
O248        C251   1.265       .  A
O248       Cd253   2.448       .  S
C249        O258   1.262       .  A
C249        O254   1.265       .  A
O250        C256   1.266       .  A
O250       Cd253   2.472       .  S
C251        O259   1.266       .  A
C251       C1105   1.478       .  S
C252        O257   1.266       .  A
C252        O255   1.261       .  A
Cd253       O260   2.464       .  S
Cd253       O259   2.473       .  S
Cd253       O258   2.430       .  S
Cd253       O254   2.535       .  S
Cd253       O257   2.541       .  S
Cd253       O255   2.436       .  S
C256        O260   1.265       .  A
C256       C1009   1.478       .  S
O261        C264   1.278       .  A
O261       Cd266   2.518   1_556  S
C262        O271   1.268       .  A
C262        O267   1.277       .  A
C262       C1225   1.492       .  S
O263        C269   1.275       .  A
O263       Cd266   2.491       .  S
C264        O272   1.266       .  A
C264        C308   1.472       .  S
C265        O270   1.274       .  A
C265        O268   1.270       .  A
C265        C929   1.490       .  S
Cd266       O273   2.416       .  S
Cd266       O272   2.383   1_554  S
Cd266       O271   2.410       .  S
Cd266       O267   2.531       .  S
Cd266       O270   2.487   1_554  S
Cd266       O268   2.451   1_554  S
C269        O273   1.268       .  A
C269        C288   1.471       .  S
O274        C277   1.275       .  A
O274       Cd279   2.491   1_556  S
C275        O284   1.269       .  A
C275        O280   1.273       .  A
C275        C969   1.488       .  S
O276        C282   1.275       .  A
O276       Cd279   2.510       .  S
C277        O285   1.265       .  A
C277        C301   1.464       .  S
C278        O283   1.274       .  A
C278        O281   1.268       .  A
C278        C921   1.488       .  S
Cd279       O286   2.401       .  S
Cd279       O285   2.381   1_554  S
Cd279       O284   2.426       .  S
Cd279       O280   2.502       .  S
Cd279       O283   2.512   1_554  S
Cd279       O281   2.420   1_554  S
C282        O286   1.265       .  A
C282        C295   1.470       .  S
O287        C290   1.264       .  A
O287       Cd292   2.462       .  S
C288        O297   1.263       .  A
C288        O293   1.266       .  A
O289        C295   1.265       .  A
O289       Cd292   2.523       .  S
C290        O298   1.267       .  A
C290        C953   1.484       .  S
C291        O296   1.266       .  A
C291        O294   1.265       .  A
C291       C1201   1.479       .  S
Cd292       O299   2.437       .  S
Cd292       O298   2.504       .  S
Cd292       O297   2.455       .  S
Cd292       O293   2.520       .  S
Cd292       O296   2.482       .  S
Cd292       O294   2.453       .  S
C295        O299   1.263       .  A
O300        C303   1.264       .  A
O300       Cd305   2.416       .  S
C301        O310   1.261       .  A
C301        O306   1.264       .  A
O302        C308   1.268       .  A
O302       Cd305   2.534       .  S
C303        O311   1.268       .  A
C303        C897   1.471       .  S
C304        O309   1.266       .  A
C304        O307   1.263       .  A
C304        C881   1.479       .  S
Cd305       O312   2.420       .  S
Cd305       O311   2.486       .  S
Cd305       O310   2.429       .  S
Cd305       O306   2.519       .  S
Cd305       O309   2.488       .  S
Cd305       O307   2.462       .  S
C308        O312   1.264       .  A
O313        C316   1.274       .  A
O313       Cd318   2.521       .  S
C314        O323   1.266       .  A
C314        O319   1.276       .  A
C314        C343   1.472       .  S
O315        C321   1.275       .  A
O315       Cd318   2.513       .  S
C316        O324   1.268       .  A
C316        C937   1.490       .  S
C317        O322   1.273       .  A
C317        O320   1.269       .  A
C317        C873   1.489       .  S
Cd318       O325   2.382       .  S
Cd318       O324   2.422       .  S
Cd318       O323   2.398       .  S
Cd318       O319   2.515       .  S
Cd318       O322   2.492       .  S
Cd318       O320   2.453       .  S
C321        O325   1.265       .  A
C321        C355   1.467       .  S
O326        C329   1.276       .  A
O326       Cd331   2.526       .  S
C327        O336   1.267       .  A
C327        O332   1.278       .  A
C327        C360   1.472       .  S
O328        C334   1.276       .  A
O328       Cd331   2.495       .  S
C329        O337   1.269       .  A
C329        C849   1.491       .  S
C330        O335   1.275       .  A
C330        O333   1.271       .  A
C330       C1337   1.491       .  S
Cd331       O338   2.392       .  S
Cd331       O337   2.412       .  S
Cd331       O336   2.383       .  S
Cd331       O332   2.513       .  S
Cd331       O335   2.500       .  S
Cd331       O333   2.439       .  S
C334        O338   1.267       .  A
C334        C340   1.469       .  S
O339        C342   1.263       .  A
O339       Cd344   2.443       .  S
C340        O349   1.263       .  A
C340        O345   1.265       .  A
O341        C347   1.266       .  A
O341       Cd344   2.471       .  S
C342        O350   1.266       .  A
C342        C833   1.479       .  S
C343        O348   1.266       .  A
C343        O346   1.261       .  A
Cd344       O351   2.456       .  S
Cd344       O350   2.491       .  S
Cd344       O349   2.436       .  S
Cd344       O345   2.524       .  S
Cd344       O348   2.541       .  S
Cd344       O346   2.433       .  S
C347        O351   1.265       .  A
C347        C825   1.478       .  S
O352        C355   1.266       .  A
O352       Cd357   2.531       .  S
C353        O362   1.265       .  A
C353        O358   1.263       .  A
C353       C1305   1.477       .  S
O354        C360   1.266       .  A
O354       Cd357   2.539       .  S
C355        O363   1.263       .  A
C356        O361   1.264       .  A
C356        O359   1.268       .  A
C356        C905   1.478       .  S
Cd357       O364   2.431       .  S
Cd357       O363   2.417       .  S
Cd357       O362   2.474       .  S
Cd357       O358   2.462       .  S
Cd357       O361   2.437       .  S
Cd357       O359   2.490       .  S
C360        O364   1.262       .  A
O365        C368   1.272       .  A
O365       Cd370   2.504       .  S
C366        O375   1.264       .  A
C366        O371   1.274       .  A
C366        C386   1.466       .  S
O367        C373   1.275       .  A
O367       Cd370   2.527       .  S
C368        O376   1.269       .  A
C368        C913   1.491   1_545  S
C369        O374   1.274       .  A
C369        O372   1.268       .  A
C369        C801   1.490       .  S
Cd370       O377   2.383       .  S
Cd370       O376   2.460       .  S
Cd370       O375   2.389       .  S
Cd370       O371   2.506       .  S
Cd370       O374   2.520       .  S
Cd370       O372   2.428       .  S
C373        O377   1.264       .  A
C373        C405   1.470   1_545  S
O378        C381   1.267       .  A
O378       Cd383   2.525       .  S
C379        O388   1.264       .  A
C379        O384   1.265       .  A
C379        C769   1.476       .  S
O380        C386   1.265       .  A
O380       Cd383   2.526       .  S
C381        O389   1.263       .  A
C381        C399   1.466       .  S
C382        O387   1.268       .  A
C382        O385   1.264       .  A
C382        C785   1.474       .  S
Cd383       O390   2.423       .  S
Cd383       O389   2.406       .  S
Cd383       O388   2.454       .  S
Cd383       O384   2.473       .  S
Cd383       O387   2.479       .  S
Cd383       O385   2.430       .  S
C386        O390   1.260       .  A
O391        C394   1.274       .  A
O391       Cd396   2.525       .  S
C392        O401   1.266       .  A
C392        O397   1.276       .  A
C392        C408   1.470   1_545  S
O393        C399   1.275       .  A
O393       Cd396   2.510       .  S
C394        O402   1.268       .  A
C394        C753   1.492       .  S
C395        O400   1.274       .  A
C395        O398   1.269       .  A
C395       C1377   1.488       .  S
Cd396       O403   2.377       .  S
Cd396       O402   2.426       .  S
Cd396       O401   2.397       .  S
Cd396       O397   2.507       .  S
Cd396       O400   2.505       .  S
Cd396       O398   2.424       .  S
C399        O403   1.265       .  A
O404        C407   1.266       .  A
O404       Cd409   2.442       .  S
C405        O414   1.259       .  A
C405        O410   1.265       .  A
O406        C412   1.265       .  A
O406       Cd409   2.491       .  S
C407        O415   1.268       .  A
C407       C1321   1.477       .  S
C408        O413   1.267       .  A
C408        O411   1.265       .  A
Cd409       O416   2.455       .  S
Cd409       O415   2.474       .  S
Cd409       O414   2.420       .  S
Cd409       O410   2.559       .  S
Cd409       O413   2.518       .  S
Cd409       O411   2.433       .  S
C412        O416   1.262       .  A
C412        C889   1.477       .  S
O417        C420   1.277       .  A
O417       Cd422   2.501       .  S
C418        O427   1.270       .  A
C418        O423   1.275       .  A
C418        C745   1.496       .  S
O419        C425   1.277       .  A
O419       Cd422   2.508       .  S
C420        O428   1.267       .  A
C420        C457   1.469       .  S
C421        O426   1.275       .  A
C421        O424   1.269       .  A
C421        C761   1.492       .  S
Cd422       O429   2.385       .  S
Cd422       O428   2.394       .  S
Cd422       O427   2.459       .  S
Cd422       O423   2.514       .  S
Cd422       O426   2.527       .  S
Cd422       O424   2.416       .  S
C425        O429   1.266       .  A
C425        C451   1.469       .  S
O430        C433   1.277       .  A
O430       Cd435   2.480       .  S
C431        O440   1.270       .  A
C431        O436   1.275       .  A
C431        C865   1.488       .  S
O432        C438   1.279       .  A
O432       Cd435   2.521       .  S
C433        O441   1.269       .  A
C433        C444   1.467       .  S
C434        O439   1.277       .  A
C434        O437   1.270       .  A
C434        C721   1.497       .  S
Cd435       O442   2.400       .  S
Cd435       O441   2.391       .  S
Cd435       O440   2.433       .  S
Cd435       O436   2.497       .  S
Cd435       O439   2.529       .  S
Cd435       O437   2.442       .  S
C438        O442   1.266       .  A
C438        C464   1.476       .  S
O443        C446   1.269       .  A
O443       Cd448   2.488       .  S
C444        O453   1.263       .  A
C444        O449   1.267       .  A
O445        C451   1.267       .  A
O445       Cd448   2.517       .  S
C446        O454   1.264       .  A
C446        C697   1.472       .  S
C447        O452   1.267       .  A
C447        O450   1.263       .  A
C447        C705   1.476       .  S
Cd448       O455   2.424       .  S
Cd448       O454   2.407       .  S
Cd448       O453   2.430       .  S
Cd448       O449   2.509       .  S
Cd448       O452   2.482       .  S
Cd448       O450   2.438       .  S
C451        O455   1.265       .  A
O456        C459   1.265       .  A
O456       Cd461   2.459       .  S
C457        O466   1.263       .  A
C457        O462   1.264       .  A
O458        C464   1.264       .  A
O458       Cd461   2.546       .  S
C459        O467   1.264       .  A
C459        C841   1.477       .  S
C460        O465   1.267       .  A
C460        O463   1.266       .  A
C460        C793   1.478       .  S
Cd461       O468   2.456       .  S
Cd461       O467   2.474       .  S
Cd461       O466   2.440       .  S
Cd461       O462   2.523       .  S
Cd461       O465   2.465       .  S
Cd461       O463   2.447       .  S
C464        O468   1.263       .  A
O469        C472   1.274   1_554  A
O469       Cd474   2.541       .  S
C470        O479   1.266       .  A
C470        O475   1.276       .  A
C470        C485   1.479       .  S
O471        C477   1.275       .  A
O471       Cd474   2.541   1_556  S
C472        O480   1.268       .  A
C472        C681   1.501       .  S
C473        O478   1.273       .  A
C473        O476   1.268       .  A
C473       C1049   1.496       .  S
Cd474       O481   2.388   1_554  S
Cd474       O480   2.481   1_554  S
Cd474       O479   2.422       .  S
Cd474       O475   2.535       .  S
Cd474       O478   2.526       .  S
Cd474       O476   2.461       .  S
C477        O481   1.264       .  A
C477        C516   1.472       .  S
O482        C485   1.267       .  A
O482       Cd487   2.555       .  S
C483        O492   1.265       .  A
C483        O488   1.266       .  A
C483       C1097   1.484       .  S
O484        C490   1.264       .  A
O484       Cd487   2.526       .  S
C485        O493   1.263       .  A
C486        O491   1.266       .  A
C486        O489   1.265       .  A
C486        C993   1.477       .  S
Cd487       O494   2.454       .  S
Cd487       O493   2.456       .  S
Cd487       O492   2.486       .  S
Cd487       O488   2.478       .  S
Cd487       O491   2.448       .  S
Cd487       O489   2.473       .  S
C490        O494   1.263       .  A
C490        C496   1.472       .  S
O495        C498   1.274   1_554  A
O495       Cd500   2.508       .  S
C496        O505   1.265       .  A
C496        O501   1.275       .  A
O497        C503   1.275       .  A
O497       Cd500   2.507   1_556  S
C498        O506   1.269       .  A
C498        C729   1.494       .  S
C499        O504   1.273       .  A
C499        O502   1.269       .  A
C499       C1161   1.492       .  S
Cd500       O507   2.387   1_554  S
Cd500       O506   2.457   1_554  S
Cd500       O505   2.412       .  S
Cd500       O501   2.513       .  S
Cd500       O504   2.501       .  S
Cd500       O502   2.456       .  S
C503        O507   1.265       .  A
C503        C511   1.468       .  S
O508        C511   1.265       .  A
O508       Cd513   2.524       .  S
C509        O518   1.263       .  A
C509        O514   1.268       .  A
C509        C657   1.472       .  S
O510        C516   1.270       .  A
O510       Cd513   2.538       .  S
C511        O519   1.262       .  A
C512        O517   1.268       .  A
C512        O515   1.262       .  A
C512        C713   1.479       .  S
Cd513       O520   2.407       .  S
Cd513       O519   2.428       .  S
Cd513       O518   2.429       .  S
Cd513       O514   2.471       .  S
Cd513       O517   2.499       .  S
Cd513       O515   2.442       .  S
C516        O520   1.265       .  A
O521        C524   1.278       .  A
O521       Cd526   2.521       .  S
C522        O531   1.269   1_455  A
C522        O527   1.276       .  A
C522        C649   1.493   1_455  S
O523        C529   1.276   1_455  A
O523       Cd526   2.484       .  S
C524        O532   1.265       .  A
C524        C548   1.469       .  S
C525        O530   1.273       .  A
C525        O528   1.270       .  A
C525        C857   1.488       .  S
Cd526       O533   2.377       .  S
Cd526       O532   2.374       .  S
Cd526       O531   2.420   1_455  S
Cd526       O527   2.525       .  S
Cd526       O530   2.493       .  S
Cd526       O528   2.440       .  S
C529        O533   1.267   1_655  A
C529        C568   1.463       .  S
O534        C537   1.277       .  A
O534       Cd539   2.517       .  S
C535        O544   1.268   1_455  A
C535        O540   1.276       .  A
C535        C673   1.498   1_455  S
O536        C542   1.275   1_455  A
O536       Cd539   2.498       .  S
C537        O545   1.266       .  A
C537        C555   1.470       .  S
C538        O543   1.273       .  A
C538        O541   1.270       .  A
C538        C809   1.489       .  S
Cd539       O546   2.393       .  S
Cd539       O545   2.387       .  S
Cd539       O544   2.426   1_455  S
Cd539       O540   2.546       .  S
Cd539       O543   2.494       .  S
Cd539       O541   2.438       .  S
C542        O546   1.265   1_655  A
C542        C561   1.466       .  S
O547        C550   1.266       .  A
O547       Cd552   2.471       .  S
C548        O557   1.263       .  A
C548        O553   1.267       .  A
O549        C555   1.264       .  A
O549       Cd552   2.539       .  S
C550        O558   1.263       .  A
C550        C777   1.474       .  S
C551        O556   1.266       .  A
C551        O554   1.265       .  A
C551        C817   1.476       .  S
Cd552       O559   2.430       .  S
Cd552       O558   2.437       .  S
Cd552       O557   2.414       .  S
Cd552       O553   2.538       .  S
Cd552       O556   2.458       .  S
Cd552       O554   2.449       .  S
C555        O559   1.261       .  A
O560        C563   1.265       .  A
O560       Cd565   2.479       .  S
C561        O570   1.264       .  A
C561        O566   1.266       .  A
O562        C568   1.264       .  A
O562       Cd565   2.517       .  S
C563        O571   1.262       .  A
C563        C633   1.474       .  S
C564        O569   1.268       .  A
C564        O567   1.265       .  A
C564        C665   1.474       .  S
Cd565       O572   2.421       .  S
Cd565       O571   2.437       .  S
Cd565       O570   2.421       .  S
Cd565       O566   2.509       .  S
Cd565       O569   2.465       .  S
Cd565       O567   2.419       .  S
C568        O572   1.261       .  A
O573        C576   1.276       .  A
O573       Cd578   2.515       .  S
C574        O583   1.267       .  A
C574        O579   1.278       .  A
C574        C616   1.471       .  S
O575        C581   1.277       .  A
O575       Cd578   2.502       .  S
C576        O584   1.270       .  A
C576       C1129   1.492       .  S
C577        O582   1.276       .  A
C577        O580   1.270       .  A
C577        C641   1.494       .  S
Cd578       O585   2.421       .  S
Cd578       O584   2.439       .  S
Cd578       O583   2.383       .  S
Cd578       O579   2.508       .  S
Cd578       O582   2.513       .  S
Cd578       O580   2.452       .  S
C581        O585   1.267       .  A
C581        C607   1.476       .  S
O586        C589   1.275       .  A
O586       Cd591   2.530       .  S
C587        O596   1.266       .  A
C587        O592   1.278       .  A
C587        C602   1.471       .  S
O588        C594   1.277       .  A
O588       Cd591   2.515       .  S
C589        O597   1.269       .  A
C589        C737   1.497       .  S
C590        O595   1.274       .  A
C590        O593   1.269       .  A
C590       C1065   1.491       .  S
Cd591       O598   2.375       .  S
Cd591       O597   2.452       .  S
Cd591       O596   2.382       .  S
Cd591       O592   2.522       .  S
Cd591       O595   2.510       .  S
Cd591       O593   2.437       .  S
C594        O598   1.265       .  A
C594        C613   1.467       .  S
O599        C602   1.265       .  A
O599       Cd604   2.548       .  S
C600        O609   1.264       .  A
C600        O605   1.266       .  A
C600       C1073   1.476       .  S
O601        C607   1.264       .  A
O601       Cd604   2.524       .  S
C602        O610   1.262       .  A
C603        O608   1.267       .  A
C603        O606   1.265       .  A
C603        C985   1.480       .  S
Cd604       O611   2.472       .  S
Cd604       O610   2.425       .  S
Cd604       O609   2.457       .  S
Cd604       O605   2.466       .  S
Cd604       O608   2.486       .  S
Cd604       O606   2.448       .  S
C607        O611   1.264       .  A
O612        C615   1.266       .  A
O612       Cd617   2.483       .  S
C613        O622   1.265       .  A
C613        O618   1.269       .  A
O614        C620   1.271       .  A
O614       Cd617   2.499       .  S
C615        O623   1.263       .  A
C615        C625   1.474       .  S
C616        O621   1.268       .  A
C616        O619   1.263       .  A
Cd617       O624   2.404       .  S
Cd617       O623   2.432       .  S
Cd617       O622   2.401       .  S
Cd617       O618   2.518       .  S
Cd617       O621   2.530       .  S
Cd617       O619   2.422       .  S
C620        O624   1.264       .  A
C620        C689   1.474       .  S
C625        C626   1.405       .  A
C625        C630   1.403       .  A
C626        C627   1.399       .  A
C626        H635   1.082       .  S
C627        C628   1.403       .  A
C627        H636   1.085       .  S
C628        C634   1.403       .  A
C628        C629   1.414       .  A
C629        C631   1.399       .  A
C629        C630   1.399       .  A
C630        H637   1.085       .  S
C631        C632   1.393       .  A
C631        H638   1.085       .  S
C632        C633   1.406       .  A
C632        H639   1.083       .  S
C633        C634   1.405       .  A
C634        H640   1.085       .  S
C641        C642   1.408       .  A
C641        C646   1.408       .  A
C642        C643   1.407       .  A
C642        H651   1.083       .  S
C643        C644   1.407       .  A
C643        H652   1.083       .  S
C644        C650   1.417       .  A
C644        C645   1.414       .  A
C645        C647   1.400       .  A
C645        C646   1.407       .  A
C646        H653   1.084       .  S
C647        C648   1.395       .  A
C647        H654   1.084       .  S
C648        C649   1.408       .  A
C648        H655   1.083       .  S
C649        C650   1.413       .  A
C650        H656   1.084       .  S
C657        C658   1.405       .  A
C657        C662   1.404       .  A
C658        C659   1.394       .  A
C658        H667   1.083       .  S
C659        C660   1.401       .  A
C659        H668   1.084       .  S
C660        C666   1.399       .  A
C660        C661   1.414       .  A
C661        C663   1.402       .  A
C661        C662   1.402       .  A
C662        H669   1.084       .  S
C663        C664   1.398       .  A
C663        H670   1.083       .  S
C664        C665   1.405       .  A
C664        H671   1.083       .  S
C665        C666   1.405       .  A
C666        H672   1.085       .  S
C673        C674   1.408       .  A
C673        C678   1.414       .  A
C674        C675   1.396       .  A
C674        H683   1.083       .  S
C675        C676   1.400       .  A
C675        H684   1.083       .  S
C676        C682   1.410       .  A
C676        C677   1.414       .  A
C677        C679   1.407       .  A
C677        C678   1.420       .  A
C678        H685   1.084       .  S
C679        C680   1.409       .  A
C679        H686   1.083       .  S
C680        C681   1.409       .  A
C680        H687   1.083       .  S
C681        C682   1.410       .  A
C682        H688   1.084       .  S
C689        C690   1.405       .  A
C689        C694   1.406       .  A
C690        C691   1.392       .  A
C690        H699   1.084       .  S
C691        C692   1.399       .  A
C691        H700   1.083       .  S
C692        C698   1.398       .  A
C692        C693   1.415       .  A
C693        C695   1.405       .  A
C693        C694   1.407       .  A
C694        H701   1.083       .  S
C695        C696   1.401       .  A
C695        H702   1.082       .  S
C696        C697   1.404       .  A
C696        H703   1.083       .  S
C697        C698   1.403       .  A
C698        H704   1.084       .  S
C705        C706   1.405       .  A
C705        C710   1.405       .  A
C706        C707   1.399       .  A
C706        H715   1.083       .  S
C707        C708   1.403       .  A
C707        H716   1.084       .  S
C708        C714   1.405       .  A
C708        C709   1.414       .  A
C709        C711   1.401       .  A
C709        C710   1.402       .  A
C710        H717   1.084       .  S
C711        C712   1.395       .  A
C711        H718   1.084       .  S
C712        C713   1.407       .  A
C712        H719   1.084       .  S
C713        C714   1.406       .  A
C714        H720   1.084       .  S
C721        C722   1.409       .  A
C721        C726   1.412       .  A
C722        C723   1.398       .  A
C722        H731   1.083       .  S
C723        C724   1.401       .  A
C723        H732   1.084       .  S
C724        C730   1.409       .  A
C724        C725   1.414       .  A
C725        C727   1.406       .  A
C725        C726   1.417       .  A
C726        H733   1.083       .  S
C727        C728   1.405       .  A
C727        H734   1.083       .  S
C728        C729   1.407       .  A
C728        H735   1.083       .  S
C729        C730   1.410       .  A
C730        H736   1.084       .  S
C737        C738   1.408       .  A
C737        C742   1.413       .  A
C738        C739   1.398       .  A
C738        H747   1.083       .  S
C739        C740   1.401       .  A
C739        H748   1.083       .  S
C740        C746   1.409       .  A
C740        C741   1.413       .  A
C741        C743   1.406       .  A
C741        C742   1.417       .  A
C742        H749   1.083       .  S
C743        C744   1.406       .  A
C743        H750   1.083       .  S
C744        C745   1.407       .  A
C744        H751   1.083       .  S
C745        C746   1.410       .  A
C746        H752   1.084       .  S
C753        C754   1.408       .  A
C753        C758   1.406       .  A
C754        C755   1.409       .  A
C754        H763   1.083       .  S
C755        C756   1.408       .  A
C755        H764   1.084       .  S
C756        C762   1.418       .  A
C756        C757   1.413       .  A
C757        C759   1.398       .  A
C757        C758   1.403       .  A
C758        H765   1.084       .  S
C759        C760   1.393       .  A
C759        H766   1.084       .  S
C760        C761   1.407       .  A
C760        H767   1.083       .  S
C761        C762   1.414       .  A
C762        H768   1.084       .  S
C769        C770   1.405       .  A
C769        C774   1.404       .  A
C770        C771   1.398       .  A
C770        H779   1.083       .  S
C771        C772   1.402       .  A
C771        H780   1.084       .  S
C772        C778   1.403       .  A
C772        C773   1.414       .  A
C773        C775   1.401       .  A
C773        C774   1.401       .  A
C774        H781   1.084       .  S
C775        C776   1.395       .  A
C775        H782   1.084       .  S
C776        C777   1.406       .  A
C776        H783   1.083       .  S
C777        C778   1.405       .  A
C778        H784   1.084       .  S
C785        C786   1.406       .  A
C785        C790   1.405       .  A
C786        C787   1.395       .  A
C786        H795   1.083       .  S
C787        C788   1.401       .  A
C787        H796   1.085       .  S
C788        C794   1.401       .  A
C788        C789   1.415       .  A
C789        C791   1.402       .  A
C789        C790   1.404       .  A
C790        H797   1.086       .  S
C791        C792   1.398       .  A
C791        H798   1.085       .  S
C792        C793   1.406       .  A
C792        H799   1.082       .  S
C793        C794   1.405       .  A
C794        H800   1.085       .  S
C801        C802   1.407       .  A
C801        C806   1.412       .  A
C802        C803   1.394       .  A
C802        H811   1.083       .  S
C803        C804   1.399       .  A
C803        H812   1.083       .  S
C804        C810   1.404       .  A
C804        C805   1.414       .  A
C805        C807   1.407       .  A
C805        C806   1.415       .  A
C806        H813   1.083       .  S
C807        C808   1.406       .  A
C807        H814   1.083       .  S
C808        C809   1.407       .  A
C808        H815   1.083       .  S
C809        C810   1.406       .  A
C810        H816   1.084       .  S
C817        C818   1.405       .  A
C817        C822   1.406       .  A
C818        C819   1.396       .  A
C818        H827   1.083       .  S
C819        C820   1.401       .  A
C819        H828   1.084       .  S
C820        C826   1.402       .  A
C820        C821   1.414       .  A
C821        C823   1.402       .  A
C821        C822   1.403       .  A
C822        H829   1.085       .  S
C823        C824   1.397       .  A
C823        H830   1.084       .  S
C824        C825   1.405       .  A
C824        H831   1.083       .  S
C825        C826   1.406       .  A
C826        H832   1.085       .  S
C833        C834   1.406       .  A
C833        C838   1.407       .  A
C834        C835   1.394       .  A
C834        H843   1.082       .  S
C835        C836   1.399       .  A
C835        H844   1.086       .  S
C836        C842   1.401       .  A
C836        C837   1.415       .  A
C837        C839   1.403       .  A
C837        C838   1.406       .  A
C838        H845   1.085       .  S
C839        C840   1.399       .  A
C839        H846   1.085       .  S
C840        C841   1.406       .  A
C840        H847   1.083       .  S
C841        C842   1.403       .  A
C842        H848   1.086       .  S
C849        C850   1.408       .  A
C849        C854   1.412       .  A
C850        C851   1.394       .  A
C850        H859   1.083       .  S
C851        C852   1.399       .  A
C851        H860   1.083       .  S
C852        C858   1.405       .  A
C852        C853   1.414       .  A
C853        C855   1.406       .  A
C853        C854   1.416       .  A
C854        H861   1.083       .  S
C855        C856   1.406       .  A
C855        H862   1.083       .  S
C856        C857   1.407       .  A
C856        H863   1.083       .  S
C857        C858   1.406       .  A
C858        H864   1.084       .  S
C865        C866   1.407       .  A
C865        C870   1.409       .  A
C866        C867   1.397       .  A
C866        H875   1.083       .  S
C867        C868   1.401       .  A
C867        H876   1.084       .  S
C868        C874   1.407       .  A
C868        C869   1.414       .  A
C869        C871   1.404       .  A
C869        C870   1.412       .  A
C870        H877   1.084       .  S
C871        C872   1.402       .  A
C871        H878   1.084       .  S
C872        C873   1.406       .  A
C872        H879   1.082       .  S
C873        C874   1.408       .  A
C874        H880   1.085       .  S
C881        C882   1.405       .  A
C881        C886   1.406       .  A
C882        C883   1.398       .  A
C882        H891   1.083       .  S
C883        C884   1.402       .  A
C883        H892   1.084       .  S
C884        C890   1.405       .  A
C884        C885   1.414       .  A
C885        C887   1.402       .  A
C885        C886   1.404       .  A
C886        H893   1.085       .  S
C887        C888   1.396       .  A
C887        H894   1.084       .  S
C888        C889   1.405       .  A
C888        H895   1.083       .  S
C889        C890   1.405       .  A
C890        H896   1.085       .  S
C897        C898   1.404       .  A
C897        C902   1.405       .  A
C898        C899   1.393       .  A
C898        H907   1.083       .  S
C899        C900   1.400       .  A
C899        H908   1.084       .  S
C900        C906   1.400       .  A
C900        C901   1.414       .  A
C901        C903   1.403       .  A
C901        C902   1.405       .  A
C902        H909   1.084       .  S
C903        C904   1.400       .  A
C903        H910   1.083       .  S
C904        C905   1.405       .  A
C904        H911   1.083       .  S
C905        C906   1.405       .  A
C906        H912   1.084       .  S
C913        C914   1.408       .  A
C913        C918   1.407       .  A
C914        C915   1.405       .  A
C914        H923   1.083   1_565  S
C915        C916   1.406       .  A
C915        H924   1.083       .  S
C916        C922   1.414       .  A
C916        C917   1.414       .  A
C917        C919   1.400       .  A
C917        C918   1.406       .  A
C918        H925   1.084       .  S
C919        C920   1.396       .  A
C919        H926   1.083       .  S
C920        C921   1.407       .  A
C920        H927   1.083       .  S
C921        C922   1.411       .  A
C922        H928   1.084       .  S
C929        C930   1.407       .  A
C929        C934   1.407       .  A
C930        C931   1.404       .  A
C930        H939   1.083       .  S
C931        C932   1.405       .  A
C931        H940   1.083       .  S
C932        C938   1.414       .  A
C932        C933   1.414       .  A
C933        C935   1.400       .  A
C933        C934   1.406       .  A
C934        H941   1.084       .  S
C935        C936   1.395       .  A
C935        H942   1.084       .  S
C936        C937   1.408       .  A
C936        H943   1.083       .  S
C937        C938   1.411       .  A
C938        H944   1.084       .  S
C945        C946   1.407       .  A
C945        C950   1.409       .  A
C946        C947   1.397       .  A
C946        H955   1.083       .  S
C947        C948   1.401       .  A
C947        H956   1.084       .  S
C948        C954   1.405       .  A
C948        C949   1.413       .  A
C949        C951   1.404       .  A
C949        C950   1.409       .  A
C950        H957   1.083       .  S
C951        C952   1.401       .  A
C951        H958   1.083       .  S
C952        C953   1.406       .  A
C952        H959   1.083       .  S
C953        C954   1.407       .  A
C954        H960   1.084       .  S
C961        C962   1.407       .  A
C961        C966   1.413       .  A
C962        C963   1.392       .  A
C962        H971   1.083       .  S
C963        C964   1.397       .  A
C963        H972   1.084       .  S
C964        C970   1.402       .  A
C964        C965   1.414       .  A
C965        C967   1.407       .  A
C965        C966   1.417       .  A
C966        H973   1.084       .  S
C967        C968   1.407       .  A
C967        H974   1.083       .  S
C968        C969   1.407       .  A
C968        H975   1.083       .  S
C969        C970   1.405       .  A
C970        H976   1.084       .  S
C977        C978   1.407       .  A
C977        C982   1.406       .  A
C978        C979   1.395       .  A
C978        H987   1.083       .  S
C979        C980   1.400       .  A
C979        H988   1.085       .  S
C980        C986   1.402       .  A
C980        C981   1.414       .  A
C981        C983   1.403       .  A
C981        C982   1.405       .  A
C982        H989   1.085       .  S
C983        C984   1.399       .  A
C983        H990   1.085       .  S
C984        C985   1.406       .  A
C984        H991   1.082       .  S
C985        C986   1.405       .  A
C986        H992   1.086       .  S
C993        C994   1.406       .  A
C993        C998   1.404       .  A
C994        C995   1.399       .  A
C994       H1003   1.083       .  S
C995        C996   1.403       .  A
C995       H1004   1.084       .  S
C996       C1002   1.406       .  A
C996        C997   1.414       .  A
C997        C999   1.399       .  A
C997        C998   1.400       .  A
C998       H1005   1.085       .  S
C999       C1000   1.394       .  A
C999       H1006   1.084       .  S
C1000      C1001   1.406       .  A
C1000      H1007   1.083       .  S
C1001      C1002   1.407       .  A
C1002      H1008   1.085       .  S
C1009      C1010   1.406       .  A
C1009      C1014   1.406       .  A
C1010      C1011   1.398       .  A
C1010      H1019   1.083       .  S
C1011      C1012   1.402       .  A
C1011      H1020   1.084       .  S
C1012      C1018   1.404       .  A
C1012      C1013   1.414       .  A
C1013      C1015   1.402       .  A
C1013      C1014   1.404       .  A
C1014      H1021   1.085       .  S
C1015      C1016   1.397       .  A
C1015      H1022   1.084       .  S
C1016      C1017   1.405       .  A
C1016      H1023   1.083       .  S
C1017      C1018   1.406       .  A
C1018      H1024   1.085       .  S
C1025      C1026   1.408       .  A
C1025      C1030   1.407       .  A
C1026      C1027   1.408       .  A
C1026      H1035   1.083   1_565  S
C1027      C1028   1.408       .  A
C1027      H1036   1.084       .  S
C1028      C1034   1.418       .  A
C1028      C1029   1.414       .  A
C1029      C1031   1.399       .  A
C1029      C1030   1.405       .  A
C1030      H1037   1.084       .  S
C1031      C1032   1.394       .  A
C1031      H1038   1.084       .  S
C1032      C1033   1.407       .  A
C1032      H1039   1.083       .  S
C1033      C1034   1.414       .  A
C1034      H1040   1.084       .  S
C1041      C1042   1.407       .  A
C1041      C1046   1.415       .  A
C1042      C1043   1.395       .  A
C1042      H1051   1.083       .  S
C1043      C1044   1.399       .  A
C1043      H1052   1.083       .  S
C1044      C1050   1.408       .  A
C1044      C1045   1.414       .  A
C1045      C1047   1.408       .  A
C1045      C1046   1.419       .  A
C1046      H1053   1.084       .  S
C1047      C1048   1.408       .  A
C1047      H1054   1.083       .  S
C1048      C1049   1.408       .  A
C1048      H1055   1.083       .  S
C1049      C1050   1.408       .  A
C1050      H1056   1.084       .  S
C1057      C1058   1.406       .  A
C1057      C1062   1.409       .  A
C1058      C1059   1.404       .  A
C1058      H1067   1.083       .  S
C1059      C1060   1.405       .  A
C1059      H1068   1.083       .  S
C1060      C1066   1.414       .  A
C1060      C1061   1.414       .  A
C1061      C1063   1.401       .  A
C1061      C1062   1.408       .  A
C1062      H1069   1.084       .  S
C1063      C1064   1.397       .  A
C1063      H1070   1.084       .  S
C1064      C1065   1.408       .  A
C1064      H1071   1.083       .  S
C1065      C1066   1.411       .  A
C1066      H1072   1.084       .  S
C1073      C1074   1.406       .  A
C1073      C1078   1.404       .  A
C1074      C1075   1.397       .  A
C1074      H1083   1.083       .  S
C1075      C1076   1.401       .  A
C1075      H1084   1.084       .  S
C1076      C1082   1.404       .  A
C1076      C1077   1.415       .  A
C1077      C1079   1.400       .  A
C1077      C1078   1.402       .  A
C1078      H1085   1.085       .  S
C1079      C1080   1.395       .  A
C1079      H1086   1.085       .  S
C1080      C1081   1.406       .  A
C1080      H1087   1.083       .  S
C1081      C1082   1.405       .  A
C1082      H1088   1.085       .  S
C1089      C1090   1.406       .  A
C1089      C1094   1.409       .  A
C1090      C1091   1.397       .  A
C1090      H1099   1.083       .  S
C1091      C1092   1.401       .  A
C1091      H1100   1.085       .  S
C1092      C1098   1.405       .  A
C1092      C1093   1.414       .  A
C1093      C1095   1.403       .  A
C1093      C1094   1.408       .  A
C1094      H1101   1.086       .  S
C1095      C1096   1.400       .  A
C1095      H1102   1.085       .  S
C1096      C1097   1.407       .  A
C1096      H1103   1.082       .  S
C1097      C1098   1.406       .  A
C1098      H1104   1.085       .  S
C1105      C1106   1.405       .  A
C1105      C1110   1.407       .  A
C1106      C1107   1.396       .  A
C1106      H1115   1.083       .  S
C1107      C1108   1.401       .  A
C1107      H1116   1.083       .  S
C1108      C1114   1.403       .  A
C1108      C1109   1.414       .  A
C1109      C1111   1.403       .  A
C1109      C1110   1.405       .  A
C1110      H1117   1.083       .  S
C1111      C1112   1.399       .  A
C1111      H1118   1.082       .  S
C1112      C1113   1.406       .  A
C1112      H1119   1.084       .  S
C1113      C1114   1.405       .  A
C1114      H1120   1.083       .  S
C1121      C1122   1.407       .  A
C1121      C1126   1.410       .  A
C1122      C1123   1.405       .  A
C1122      H1131   1.083       .  S
C1123      C1124   1.405       .  A
C1123      H1132   1.084       .  S
C1124      C1130   1.415       .  A
C1124      C1125   1.414       .  A
C1125      C1127   1.402       .  A
C1125      C1126   1.410       .  A
C1126      H1133   1.084       .  S
C1127      C1128   1.399       .  A
C1127      H1134   1.084       .  S
C1128      C1129   1.407       .  A
C1128      H1135   1.083       .  S
C1129      C1130   1.411       .  A
C1130      H1136   1.084       .  S
C1137      C1138   1.408       .  A
C1137      C1142   1.410       .  A
C1138      C1139   1.397       .  A
C1138      H1147   1.083       .  S
C1139      C1140   1.401       .  A
C1139      H1148   1.084       .  S
C1140      C1146   1.407       .  A
C1140      C1141   1.413       .  A
C1141      C1143   1.405       .  A
C1141      C1142   1.412       .  A
C1142      H1149   1.083       .  S
C1143      C1144   1.404       .  A
C1143      H1150   1.083       .  S
C1144      C1145   1.406       .  A
C1144      H1151   1.083   1_655  S
C1145      C1146   1.409       .  A
C1146      H1152   1.084       .  S
C1153      C1154   1.408       .  A
C1153      C1158   1.411       .  A
C1154      C1155   1.397       .  A
C1154      H1163   1.083       .  S
C1155      C1156   1.401       .  A
C1155      H1164   1.084       .  S
C1156      C1162   1.408       .  A
C1156      C1157   1.414       .  A
C1157      C1159   1.405       .  A
C1157      C1158   1.414       .  A
C1158      H1165   1.084       .  S
C1159      C1160   1.404       .  A
C1159      H1166   1.083       .  S
C1160      C1161   1.407       .  A
C1160      H1167   1.083       .  S
C1161      C1162   1.409       .  A
C1162      H1168   1.084       .  S
C1169      C1170   1.405       .  A
C1169      C1174   1.406       .  A
C1170      C1171   1.394       .  A
C1170      H1179   1.084       .  S
C1171      C1172   1.400       .  A
C1171      H1180   1.082       .  S
C1172      C1178   1.401       .  A
C1172      C1173   1.414       .  A
C1173      C1175   1.403       .  A
C1173      C1174   1.405       .  A
C1174      H1181   1.083       .  S
C1175      C1176   1.399       .  A
C1175      H1182   1.083       .  S
C1176      C1177   1.406       .  A
C1176      H1183   1.083       .  S
C1177      C1178   1.404       .  A
C1178      H1184   1.083       .  S
C1185      C1186   1.407       .  A
C1185      C1190   1.407       .  A
C1186      C1187   1.398       .  A
C1186      H1195   1.083       .  S
C1187      C1188   1.401       .  A
C1187      H1196   1.083       .  S
C1188      C1194   1.407       .  A
C1188      C1189   1.415       .  A
C1189      C1191   1.401       .  A
C1189      C1190   1.407       .  A
C1190      H1197   1.084       .  S
C1191      C1192   1.397       .  A
C1191      H1198   1.083       .  S
C1192      C1193   1.406       .  A
C1192      H1199   1.083       .  S
C1193      C1194   1.406       .  A
C1194      H1200   1.084       .  S
C1201      C1202   1.406       .  A
C1201      C1206   1.405       .  A
C1202      C1203   1.399       .  A
C1202      H1211   1.083       .  S
C1203      C1204   1.403       .  A
C1203      H1212   1.083       .  S
C1204      C1210   1.406       .  A
C1204      C1205   1.414       .  A
C1205      C1207   1.400       .  A
C1205      C1206   1.401       .  A
C1206      H1213   1.084       .  S
C1207      C1208   1.394       .  A
C1207      H1214   1.083       .  S
C1208      C1209   1.404       .  A
C1208      H1215   1.083       .  S
C1209      C1210   1.406       .  A
C1210      H1216   1.084       .  S
C1217      C1218   1.407       .  A
C1217      C1222   1.407       .  A
C1218      C1219   1.406       .  A
C1218      H1227   1.083       .  S
C1219      C1220   1.406       .  A
C1219      H1228   1.083       .  S
C1220      C1226   1.416       .  A
C1220      C1221   1.414       .  A
C1221      C1223   1.399       .  A
C1221      C1222   1.406       .  A
C1222      H1229   1.084       .  S
C1223      C1224   1.395       .  A
C1223      H1230   1.084       .  S
C1224      C1225   1.408       .  A
C1224      H1231   1.083       .  S
C1225      C1226   1.412       .  A
C1226      H1232   1.083       .  S
C1233      C1234   1.408       .  A
C1233      C1238   1.413       .  A
C1234      C1235   1.395       .  A
C1234      H1243   1.083       .  S
C1235      C1236   1.400       .  A
C1235      H1244   1.084       .  S
C1236      C1242   1.406       .  A
C1236      C1237   1.414       .  A
C1237      C1239   1.407       .  A
C1237      C1238   1.417       .  A
C1238      H1245   1.084       .  S
C1239      C1240   1.407       .  A
C1239      H1246   1.083       .  S
C1240      C1241   1.407       .  A
C1240      H1247   1.083       .  S
C1241      C1242   1.408       .  A
C1242      H1248   1.084       .  S
C1249      C1250   1.406       .  A
C1249      C1254   1.408       .  A
C1250      C1251   1.394       .  A
C1250      H1259   1.083       .  S
C1251      C1252   1.400       .  A
C1251      H1260   1.084       .  S
C1252      C1258   1.402       .  A
C1252      C1253   1.414       .  A
C1253      C1255   1.405       .  A
C1253      C1254   1.410       .  A
C1254      H1261   1.084       .  S
C1255      C1256   1.403       .  A
C1255      H1262   1.084       .  S
C1256      C1257   1.406       .  A
C1256      H1263   1.082   1_565  S
C1257      C1258   1.406       .  A
C1258      H1264   1.085       .  S
C1265      C1266   1.404       .  A
C1265      C1270   1.403       .  A
C1266      C1267   1.400       .  A
C1266      H1275   1.083       .  S
C1267      C1268   1.404       .  A
C1267      H1276   1.084       .  S
C1268      C1274   1.404       .  A
C1268      C1269   1.414       .  A
C1269      C1271   1.400       .  A
C1269      C1270   1.398       .  A
C1270      H1277   1.085       .  S
C1271      C1272   1.394       .  A
C1271      H1278   1.084       .  S
C1272      C1273   1.405       .  A
C1272      H1279   1.083       .  S
C1273      C1274   1.407       .  A
C1274      H1280   1.085       .  S
C1281      C1282   1.405       .  A
C1281      C1286   1.409       .  A
C1282      C1283   1.392       .  A
C1282      H1291   1.083       .  S
C1283      C1284   1.398       .  A
C1283      H1292   1.084       .  S
C1284      C1290   1.400       .  A
C1284      C1285   1.414       .  A
C1285      C1287   1.405       .  A
C1285      C1286   1.409       .  A
C1286      H1293   1.085       .  S
C1287      C1288   1.403       .  A
C1287      H1294   1.084       .  S
C1288      C1289   1.406       .  A
C1288      H1295   1.082       .  S
C1289      C1290   1.404       .  A
C1290      H1296   1.085       .  S
C1297      C1298   1.405       .  A
C1297      C1302   1.405       .  A
C1298      C1299   1.396       .  A
C1298      H1307   1.082       .  S
C1299      C1300   1.401       .  A
C1299      H1308   1.085       .  S
C1300      C1306   1.402       .  A
C1300      C1301   1.414       .  A
C1301      C1303   1.401       .  A
C1301      C1302   1.402       .  A
C1302      H1309   1.085       .  S
C1303      C1304   1.396       .  A
C1303      H1310   1.084       .  S
C1304      C1305   1.406       .  A
C1304      H1311   1.083       .  S
C1305      C1306   1.405       .  A
C1306      H1312   1.085       .  S
C1313      C1314   1.405       .  A
C1313      C1318   1.405       .  A
C1314      C1315   1.400       .  A
C1314      H1323   1.083       .  S
C1315      C1316   1.404       .  A
C1315      H1324   1.083       .  S
C1316      C1322   1.405       .  A
C1316      C1317   1.413       .  A
C1317      C1319   1.401       .  A
C1317      C1318   1.400       .  A
C1318      H1325   1.084       .  S
C1319      C1320   1.395       .  A
C1319      H1326   1.083       .  S
C1320      C1321   1.405       .  A
C1320      H1327   1.083       .  S
C1321      C1322   1.408       .  A
C1322      H1328   1.084       .  S
C1329      C1330   1.408       .  A
C1329      C1334   1.412       .  A
C1330      C1331   1.393       .  A
C1330      H1339   1.083       .  S
C1331      C1332   1.398       .  A
C1331      H1340   1.084       .  S
C1332      C1338   1.405       .  A
C1332      C1333   1.414       .  A
C1333      C1335   1.407       .  A
C1333      C1334   1.416       .  A
C1334      H1341   1.084       .  S
C1335      C1336   1.407       .  A
C1335      H1342   1.084       .  S
C1336      C1337   1.408       .  A
C1336      H1343   1.083       .  S
C1337      C1338   1.406       .  A
C1338      H1344   1.084       .  S
C1345      C1346   1.407       .  A
C1345      C1350   1.409       .  A
C1346      C1347   1.404       .  A
C1346      H1355   1.083       .  S
C1347      C1348   1.405       .  A
C1347      H1356   1.083       .  S
C1348      C1354   1.414       .  A
C1348      C1349   1.414       .  A
C1349      C1351   1.402       .  A
C1349      C1350   1.409       .  A
C1350      H1357   1.084       .  S
C1351      C1352   1.398       .  A
C1351      H1358   1.083       .  S
C1352      C1353   1.407       .  A
C1352      H1359   1.083       .  S
C1353      C1354   1.411       .  A
C1354      H1360   1.083       .  S
C1361      C1362   1.407       .  A
C1361      C1366   1.407       .  A
C1362      C1363   1.404       .  A
C1362      H1371   1.083       .  S
C1363      C1364   1.406       .  A
C1363      H1372   1.083       .  S
C1364      C1370   1.413       .  A
C1364      C1365   1.414       .  A
C1365      C1367   1.400       .  A
C1365      C1366   1.404       .  A
C1366      H1373   1.084       .  S
C1367      C1368   1.395       .  A
C1367      H1374   1.083       .  S
C1368      C1369   1.406       .  A
C1368      H1375   1.083       .  S
C1369      C1370   1.411       .  A
C1370      H1376   1.084       .  S
C1377      C1378   1.407       .  A
C1377      C1382   1.405   1_545  A
C1378      C1379   1.407   1_545  A
C1378      H1387   1.083       .  S
C1379      C1380   1.407       .  A
C1379      H1388   1.083       .  S
C1380      C1386   1.416       .  A
C1380      C1381   1.414       .  A
C1381      C1383   1.398       .  A
C1381      C1382   1.402       .  A
C1382      H1389   1.084       .  S
C1383      C1384   1.392       .  A
C1383      H1390   1.084       .  S
C1384      C1385   1.407       .  A
C1384      H1391   1.083       .  S
C1385      C1386   1.413       .  A
C1386      H1392   1.084       .  S
