geometry optimzed in LAMMPS
_audit_creation_date              2020-11-30 
_audit_creation_method            'lammps2cif' 
_symmetry_space_group_name_H-M    'P1' 
_symmetry_Int_Tables_number       1 
_symmetry_cell_setting            triclinic 
loop_ 
_symmetry_equiv_pos_as_xyz 
  x,y,z 
_cell_length_a                    48.71175839 
_cell_length_b                    48.488017306993996 
_cell_length_c                    25.79196249482377 
_cell_angle_alpha                 88.86820342054322 
_cell_angle_beta                  89.82660641992113 
_cell_angle_gamma                 89.66105973044866 
loop_ 
_atom_site_label 
_atom_site_type_symbol 
_atom_site_fract_x 
_atom_site_fract_y 
_atom_site_fract_z 
_atom_site_charge 
O1          O  0.22519214  0.00069659  0.93314514    -0.58300
C2          C  0.21078044  0.97495524  0.10432585     0.74300
O3          O  0.14901181  0.02002059  0.02886789    -0.59400
C4          C  0.20900757  0.01494898  0.90452866     0.74300
C5          C  0.17111488  0.94167743  0.95897753     0.76700
Cd6        Cd  0.18970094  0.99212677  0.00330450     1.37500
O7          O  0.22521087  0.99012622  0.07419187    -0.58300
O8          O  0.19618983  0.94815709  0.96192452    -0.57100
C9          C  0.16362711  0.03935128  0.04667995     0.76700
O10         O  0.15384566  0.95890322  0.97686483    -0.59500
O11         O  0.18848017  0.96614498  0.08599736    -0.57900
O12         O  0.18538255  0.01972017  0.92297755    -0.57900
O13         O  0.18938473  0.03610608  0.04453376    -0.57100
O14         O  0.23950667  0.98545964  0.32518845    -0.58300
C15         C  0.21911428  0.96732861  0.15790434     0.74300
O16         O  0.26830241  0.90652292  0.24329665    -0.59400
C17         C  0.25464236  0.97197316  0.35693237     0.74300
C18         C  0.19087719  0.91846769  0.30266600     0.76700
Cd19       Cd  0.23755919  0.94691912  0.25941279     1.37500
O20         O  0.23643837  0.98089608  0.18363416    -0.58300
O21         O  0.19357287  0.94435735  0.30514325    -0.57100
C22         C  0.28660395  0.92080431  0.22028135     0.76700
O23         O  0.20952203  0.90570931  0.27812520    -0.59500
O24         O  0.20884154  0.94652669  0.18080101    -0.57900
O25         O  0.26267529  0.94852369  0.34229290    -0.57900
O26         O  0.28201000  0.94645416  0.21670313    -0.57100
O27         O  0.23623942  0.01651519  0.82560629    -0.58300
C28         C  0.25167730  0.02905441  0.65622431     0.74300
O29         O  0.20332293  0.09289013  0.72115280    -0.59400
C30         C  0.21670385  0.02606905  0.85258708     0.74300
C31         C  0.27366586  0.08957039  0.78992994     0.76700
Cd32       Cd  0.23166513  0.05276170  0.75310111     1.37500
O33         O  0.23089706  0.01884035  0.67899881    -0.58300
O34         O  0.27859681  0.06431119  0.78212149    -0.57100
C35         C  0.18395776  0.07820613  0.70418248     0.76700
O36         O  0.24927222  0.09766024  0.78117226    -0.59500
O37         O  0.26408681  0.04769151  0.68024784    -0.57900
O38         O  0.20351638  0.04599460  0.83234497    -0.57900
O39         O  0.18696468  0.05242246  0.71018070    -0.57100
O40         O  0.24779526  0.00521344  0.57446656    -0.58300
C41         C  0.26328672  0.98253425  0.40805306     0.74300
O42         O  0.32549873  0.03286309  0.48149380    -0.59400
C43         C  0.26142757  0.02041916  0.60450252     0.74300
C44         C  0.31672577  0.95791054  0.54665008     0.76700
Cd45       Cd  0.28554342  0.00372173  0.50569034     1.37500
O46         O  0.25132710  0.00222854  0.43085890    -0.58300
O47         O  0.29077598  0.95907097  0.54896571    -0.57100
C48         C  0.31116292  0.05265411  0.46308928     0.76700
O49         O  0.32885647  0.97876097  0.52704889    -0.59500
O50         O  0.28353044  0.97188586  0.43170773    -0.57900
O51         O  0.28434654  0.02865006  0.58750184    -0.57900
O52         O  0.28542249  0.04933525  0.46380595    -0.57100
O53         O  0.79897939  0.96873146  0.04617030    -0.58300
C54         C  0.77041062  0.01132853  0.86714199     0.74300
O55         O  0.79904263  0.04682940  0.98701090    -0.59400
C56         C  0.77835203  0.97964209  0.06759524     0.74300
C57         C  0.84166009  0.96004807  0.92464847     0.76700
Cd58       Cd  0.80019672  0.99789732  0.96431278     1.37500
O59         O  0.78842530  0.02615066  0.88759340    -0.58300
O60         O  0.81762772  0.95205229  0.93616663    -0.57100
C61         C  0.82411486  0.04879081  0.99891029     0.76700
O62         O  0.84610132  0.98548537  0.93043958    -0.59500
O63         O  0.76424835  0.98945485  0.89234781    -0.57900
O64         O  0.76601316  0.99785505  0.04034485    -0.57900
O65         O  0.83853637  0.02710751  0.99459719    -0.57100
O66         O  0.74198605  0.00607079  0.78957833    -0.58300
C67         C  0.71774363  0.02728839  0.61853409     0.74300
O68         O  0.70190553  0.08253017  0.75388390    -0.59400
C69         C  0.75777471  0.02052487  0.81724398     0.74300
C70         C  0.77704258  0.08432235  0.70205656     0.76700
Cd71       Cd  0.73370309  0.04598988  0.72333457     1.37500
O72         O  0.73736219  0.01569389  0.64307962    -0.58300
O73         O  0.78099366  0.05860653  0.69828591    -0.57100
C74         C  0.68504784  0.06600527  0.77526766     0.76700
O75         O  0.75257768  0.09223510  0.71034368    -0.59500
O76         O  0.70516040  0.04593787  0.64272982    -0.57900
O77         O  0.76281391  0.04445891  0.79986711    -0.57900
O78         O  0.69075865  0.04055478  0.77247014    -0.57100
O79         O  0.68589835  0.02656393  0.54762629    -0.58300
C80         C  0.71514932  0.98315143  0.36844521     0.74300
O81         O  0.64876074  0.96916461  0.49293190    -0.59400
C82         C  0.70913154  0.01945497  0.56533092     0.74300
C83         C  0.64902207  0.04177523  0.42414965     0.76700
Cd84       Cd  0.68723159  0.00011245  0.46548125     1.37500
O85         O  0.72269002  0.00480756  0.39120286    -0.58300
O86         O  0.67332431  0.04775386  0.43709849    -0.57100
C87         C  0.66394093  0.95147008  0.51593468     0.76700
O88         O  0.64267082  0.01658962  0.42973280    -0.59500
O89         O  0.69677921  0.96931032  0.39160491    -0.57900
O90         O  0.72398675  0.00529858  0.53513030    -0.57900
O91         O  0.68946726  0.95597603  0.51406425    -0.57100
O92         O  0.75218852  0.98453349  0.14768694    -0.58300
C93         C  0.72659858  0.97366776  0.31802897     0.74300
O94         O  0.72183063  0.90716487  0.20437167    -0.59400
C95         C  0.76938105  0.97101814  0.12096892     0.74300
C96         C  0.79403293  0.92132202  0.27585529     0.76700
Cd97       Cd  0.74927626  0.94915345  0.22268691     1.37500
O98         O  0.71961045  0.95059348  0.30052299    -0.58300
O99         O  0.79074381  0.94724256  0.27556040    -0.57100
C100        C  0.70177165  0.92092990  0.18587101     0.76700
O101        O  0.77681580  0.90780755  0.24977753    -0.59500
O102        O  0.74338035  0.98740155  0.28994809    -0.57900
O103        O  0.77869414  0.94927714  0.14258637    -0.57900
O104        O  0.70463346  0.94680742  0.18250884    -0.57100
C105        C  0.58282571  0.13713183  0.42128142     0.86000
C106        C  0.55298824  0.14480524  0.40624251    -0.54200
C107        C  0.54085930  0.16548591  0.43474341     0.08900
C108        C  0.56067588  0.17584909  0.47712670     0.19900
C109        C  0.59811542  0.16541783  0.41835569    -0.54900
C110        C  0.58601750  0.18578472  0.44713161     0.09000
C111        C  0.58152734  0.13066301  0.47938395    -0.54500
C112        C  0.57000567  0.15026510  0.50826061     0.09600
H113        H  0.54223369  0.13320547  0.37734871     0.14100
H114        H  0.55348980  0.19143570  0.50372070    -0.00100
H115        H  0.61655275  0.16977922  0.39606809     0.14400
H116        H  0.58948366  0.11171869  0.49712545     0.14200
C117        C  0.37349745  0.15121074  0.43721772     0.86000
C118        C  0.36758181  0.17975848  0.41209002    -0.54200
C119        C  0.38362148  0.20038821  0.43064124     0.08900
C120        C  0.40455819  0.19072416  0.47167222     0.19900
C121        C  0.40504139  0.14663919  0.42927593    -0.54900
C122        C  0.42142723  0.16784740  0.44586399     0.09000
C123        C  0.37156781  0.15562292  0.49577344    -0.54500
C124        C  0.38810981  0.17540571  0.51440162     0.09600
H125        H  0.35191212  0.18338948  0.38298874     0.14100
H126        H  0.41661989  0.20834895  0.48558861    -0.00100
H127        H  0.41411270  0.12764391  0.41628192     0.14400
H128        H  0.36023646  0.14182316  0.52173405     0.14200
C129        C  0.59729228  0.35412463  0.45117327     0.86000
C130        C  0.60871923  0.32481380  0.44163418    -0.54200
C131        C  0.59049534  0.30427099  0.45347452     0.08900
C132        C  0.56229587  0.31489787  0.47172882     0.19900
C133        C  0.57165310  0.35423847  0.41567627    -0.54900
C134        C  0.55247565  0.33436143  0.42716076     0.09000
C135        C  0.58636750  0.35319971  0.50688843    -0.54500
C136        C  0.56756823  0.33334134  0.51825253     0.09600
H137        H  0.62853219  0.32052188  0.42426288     0.14100
H138        H  0.54805578  0.29831903  0.48107390    -0.00100
H139        H  0.57040019  0.36800607  0.38238903     0.14400
H140        H  0.59347214  0.36753775  0.53573621     0.14200
C141        C  0.39103204  0.36632254  0.44012142     0.86000
C142        C  0.42161966  0.36669166  0.42236881    -0.54200
C143        C  0.43593109  0.34229906  0.43180690     0.08900
C144        C  0.41807722  0.32084042  0.46112752     0.19900
C145        C  0.37882224  0.34033472  0.41562345    -0.54900
C146        C  0.39276196  0.31656604  0.42698065     0.09000
C147        C  0.39447438  0.35977041  0.49798291    -0.54500
C148        C  0.40825481  0.33624694  0.50946501     0.09600
H149        H  0.43204073  0.38525612  0.41078800     0.14100
H150        H  0.42740374  0.30064622  0.46984725    -0.00100
H151        H  0.36059590  0.34087461  0.39145126     0.14400
H152        H  0.38776706  0.37367976  0.52814634     0.14200
C153        C  0.39488961  0.35950495  0.80165339     0.86000
C154        C  0.38985042  0.32841558  0.81409902    -0.54200
C155        C  0.41103160  0.31102806  0.80056445     0.08900
C156        C  0.43469790  0.32659636  0.77347541     0.19900
C157        C  0.42289426  0.36590223  0.82675547    -0.54900
C158        C  0.44376069  0.34863539  0.81190110     0.09000
C159        C  0.40029021  0.35914768  0.74318745    -0.54500
C160        C  0.42049708  0.34194321  0.72792272     0.09600
H161        H  0.37030400  0.32036595  0.82705983     0.14100
H162        H  0.45250859  0.31389297  0.76212482    -0.00100
H163        H  0.42580612  0.38236959  0.85400656     0.14400
H164        H  0.38708533  0.36964434  0.71498951     0.14200
C165        C  0.60679875  0.34037191  0.79011700     0.86000
C166        C  0.58291059  0.34918131  0.82664554    -0.54200
C167        C  0.55905804  0.33448946  0.82058848     0.08900
C168        C  0.56167464  0.31200590  0.77941817     0.19900
C169        C  0.61048935  0.30926081  0.79969724    -0.54900
C170        C  0.58723062  0.29423456  0.79436795     0.09000
C171        C  0.59293390  0.34342782  0.73651429    -0.54500
C172        C  0.56936909  0.32872102  0.73019812     0.09600
H173        H  0.58370245  0.36707511  0.85081345     0.14100
H174        H  0.54268327  0.29994320  0.77600497    -0.00100
H175        H  0.63027530  0.29974202  0.80821096     0.14400
H176        H  0.60088832  0.35694141  0.70604246     0.14200
C177        C  0.37310203  0.15114239  0.81033629     0.86000
C178        C  0.39925497  0.13549057  0.83049233    -0.54200
C179        C  0.42349292  0.14727277  0.81418405     0.08900
C180        C  0.41939240  0.17238509  0.77792600     0.19900
C181        C  0.37784061  0.18129622  0.82648060    -0.54900
C182        C  0.40255985  0.19250173  0.81095262     0.09000
C183        C  0.37716021  0.15127533  0.75148975    -0.54500
C184        C  0.40033926  0.16330856  0.73436519     0.09600
H185        H  0.39933395  0.11695195  0.85445596     0.14100
H186        H  0.43875472  0.17958997  0.76139576    -0.00100
H187        H  0.36204306  0.19286015  0.84638077     0.14400
H188        H  0.36199894  0.14359319  0.72450381     0.14200
C189        C  0.58818837  0.12387214  0.81132326     0.86000
C190        C  0.59513696  0.15504494  0.81748575    -0.54200
C191        C  0.57604985  0.17338796  0.79745617     0.08900
C192        C  0.55200860  0.15839415  0.77099868     0.19900
C193        C  0.55915150  0.12047896  0.83402257    -0.54900
C194        C  0.54000766  0.13804079  0.81243096     0.09000
C195        C  0.58421779  0.12159373  0.75289478    -0.54500
C196        C  0.56631805  0.13970195  0.73116102     0.09600
H197        H  0.61448245  0.16235235  0.83224034     0.14100
H198        H  0.53636352  0.17258772  0.75403123    -0.00100
H199        H  0.55393902  0.10482080  0.86300257     0.14400
H200        H  0.59630905  0.10780486  0.72908917     0.14200
C201        C  0.38809822  0.86404821  0.56484441     0.86000
C202        C  0.38094642  0.83420699  0.57925350    -0.54200
C203        C  0.39896463  0.81524795  0.56088176     0.08900
C204        C  0.42381600  0.82808561  0.53137112     0.19900
C205        C  0.41769440  0.86779421  0.58611478    -0.54900
C206        C  0.43637994  0.84876422  0.56864596     0.09000
C207        C  0.39259832  0.86425834  0.50571289    -0.54500
C208        C  0.41195817  0.84652005  0.48717798     0.09600
H209        H  0.36257039  0.82842575  0.60076076     0.14100
H210        H  0.43917674  0.81288596  0.51995438    -0.00100
H211        H  0.42424883  0.88443368  0.60986847     0.14400
H212        H  0.38103314  0.87806214  0.48009113     0.14200
C213        C  0.38001522  0.64898960  0.57563046     0.86000
C214        C  0.41041388  0.64032534  0.58624311    -0.54200
C215        C  0.42956740  0.65778385  0.56511466     0.08900
C216        C  0.41664420  0.68158174  0.53288159     0.19900
C217        C  0.37789161  0.67888242  0.59357300    -0.54900
C218        C  0.39621975  0.69632110  0.57001565     0.09000
C219        C  0.37866953  0.65155978  0.51621987    -0.54500
C220        C  0.39830317  0.66708810  0.49260476     0.09600
H221        H  0.41687806  0.62142472  0.60541782     0.14100
H222        H  0.43290337  0.69506129  0.51721506    -0.00100
H223        H  0.36183548  0.68614075  0.61936599     0.14400
H224        H  0.36298262  0.64139047  0.49383054     0.14200
C225        C  0.60369384  0.85804960  0.56838336     0.86000
C226        C  0.57376451  0.86155672  0.58704545    -0.54200
C227        C  0.55554408  0.84393074  0.56501456     0.08900
C228        C  0.56916643  0.82347382  0.52745087     0.19900
C229        C  0.60999665  0.82734231  0.58113829    -0.54900
C230        C  0.59222417  0.80924737  0.55926183     0.09000
C231        C  0.60080086  0.86023736  0.50909825    -0.54500
C232        C  0.58365554  0.84186725  0.48678149     0.09600
H233        H  0.56653050  0.87699846  0.61343672     0.14100
H234        H  0.55492405  0.80841969  0.51060161    -0.00100
H235        H  0.62659858  0.82046050  0.60611875     0.14400
H236        H  0.61119024  0.87616438  0.48647840     0.14200
C237        C  0.59844578  0.64087985  0.58550510     0.86000
C238        C  0.60047026  0.67232175  0.59583147    -0.54200
C239        C  0.58304630  0.68899129  0.56649682     0.08900
C240        C  0.56523281  0.67187561  0.52992485     0.19900
C241        C  0.56738946  0.63463686  0.59388184    -0.54900
C242        C  0.55001053  0.65127077  0.56562237     0.09000
C243        C  0.60255187  0.63872957  0.52693851    -0.54500
C244        C  0.58587605  0.65470987  0.49765543     0.09600
H245        H  0.61494822  0.68064920  0.62311288     0.14100
H246        H  0.55013059  0.68352309  0.50706866    -0.00100
H247        H  0.55921383  0.61867631  0.61892384     0.14400
H248        H  0.61815219  0.62574700  0.50936801     0.14200
C249        C  0.38880466  0.64786670  0.17937040     0.86000
C250        C  0.38615372  0.67896614  0.16417815    -0.54200
C251        C  0.40410477  0.69577139  0.18957609     0.08900
C252        C  0.42291526  0.67981525  0.22810818     0.19900
C253        C  0.41940747  0.64139464  0.16954323    -0.54900
C254        C  0.43731956  0.65751508  0.19571725     0.09000
C255        C  0.38509746  0.64826135  0.23852509    -0.54500
C256        C  0.40292596  0.66417765  0.26480938     0.09600
H257        H  0.37105747  0.68781096  0.13847317     0.14100
H258        H  0.43781476  0.69299903  0.24833511    -0.00100
H259        H  0.42631323  0.62523568  0.14413229     0.14400
H260        H  0.36876322  0.63701020  0.25820280     0.14200
C261        C  0.60552324  0.64698099  0.18785239     0.86000
C262        C  0.57479603  0.64229871  0.17754815    -0.54200
C263        C  0.55723108  0.65944441  0.20327051     0.08900
C264        C  0.57256350  0.68054411  0.23681744     0.19900
C265        C  0.60968430  0.67788589  0.17365504    -0.54900
C266        C  0.59225589  0.69534206  0.19888331     0.09000
C267        C  0.60840137  0.64612791  0.24713743    -0.54500
C268        C  0.59116401  0.66293804  0.27318249     0.09600
H269        H  0.56756097  0.62644413  0.15219123     0.14100
H270        H  0.55916457  0.69543176  0.25701486    -0.00100
H271        H  0.62485813  0.68611041  0.14689899     0.14400
H272        H  0.62266989  0.63242790  0.26754240     0.14200
C273        C  0.38596381  0.86362319  0.18110355     0.86000
C274        C  0.41450315  0.87211297  0.15996980    -0.54200
C275        C  0.43586268  0.85749197  0.18114029     0.08900
C276        C  0.42683306  0.83479568  0.22014437     0.19900
C277        C  0.38463344  0.83250700  0.16992779    -0.54900
C278        C  0.40555080  0.81694996  0.19084171     0.09000
C279        C  0.38815316  0.86375660  0.24067194    -0.54500
C280        C  0.40980557  0.84982539  0.26186487     0.09600
H281        H  0.41766774  0.88843619  0.13117530     0.14100
H282        H  0.44485913  0.82350108  0.23570907    -0.00100
H283        H  0.36823032  0.82259725  0.14992739     0.14400
H284        H  0.37246908  0.87327954  0.26447646     0.14200
C285        C  0.60223973  0.86171416  0.17479033     0.86000
C286        C  0.60530936  0.83074168  0.16513385    -0.54200
C287        C  0.58551434  0.81495417  0.18840063     0.08900
C288        C  0.56370844  0.83186961  0.21825525     0.19900
C289        C  0.57324650  0.86926640  0.15611740    -0.54900
C290        C  0.55300374  0.85398021  0.17880394     0.09000
C291        C  0.60118026  0.86208281  0.23434936    -0.54500
C292        C  0.58039937  0.84798868  0.25873881     0.09600
H293        H  0.62275899  0.82122457  0.14658087     0.14100
H294        H  0.54770219  0.81822270  0.23380943    -0.00100
H295        H  0.56897808  0.88614730  0.12897711     0.14400
H296        H  0.61818426  0.87081545  0.25431100     0.14200
O297        O  0.24172199  0.48344519  0.66823980    -0.58300
C298        C  0.22754147  0.46482712  0.83974665     0.74300
O299        O  0.21708220  0.40243815  0.71440132    -0.59400
C300        C  0.26011533  0.47303922  0.63948331     0.74300
C301        C  0.29415485  0.41829067  0.76949710     0.76700
Cd302      Cd  0.24386800  0.44472966  0.73664902     1.37500
O303        O  0.24021014  0.48059652  0.80801929    -0.58300
O304        O  0.29048623  0.44414100  0.76989378    -0.57100
C305        C  0.19704957  0.41587792  0.69496214     0.76700
O306        O  0.27424550  0.40401114  0.75344560    -0.59500
O307        O  0.22126996  0.44140759  0.82284542    -0.57900
O308        O  0.27137028  0.45116586  0.65670944    -0.57900
O309        O  0.19926582  0.44185359  0.69471911    -0.57100
O310        O  0.28957180  0.53886292  0.41363040    -0.58300
C311        C  0.26898358  0.48544968  0.58911615     0.74300
O312        O  0.33719006  0.48757411  0.47834373    -0.59400
C313        C  0.26987631  0.52659248  0.39232952     0.74300
C314        C  0.31442039  0.55853266  0.54155314     0.76700
Cd315      Cd  0.29211685  0.51046975  0.49398365     1.37500
O316        O  0.29157651  0.47839027  0.56916613    -0.58300
O317        O  0.28880956  0.55511694  0.53661544    -0.57100
C318        C  0.32624645  0.46692034  0.45731934     0.76700
O319        O  0.32985235  0.53996426  0.52302948    -0.59500
O320        O  0.25511421  0.50329649  0.56350444    -0.57900
O321        O  0.25823841  0.50793091  0.41954880    -0.57900
O322        O  0.30057184  0.46787048  0.45034992    -0.57100
O323        O  0.20348183  0.45797181  0.91984689    -0.58300
C324        C  0.22185746  0.51119631  0.09038335     0.74300
O325        O  0.15295412  0.50621539  0.97531847    -0.59400
C326        C  0.21976833  0.47271600  0.89335072     0.74300
C327        C  0.17279024  0.43987836  0.04503732     0.76700
Cd328      Cd  0.19819514  0.48773984  0.99658950     1.37500
O329        O  0.19961021  0.51893944  0.06978385    -0.58300
O330        O  0.19858135  0.44317238  0.04468443    -0.57100
C331        C  0.16049931  0.53110872  0.97027106     0.76700
O332        O  0.15871541  0.45894066  0.02354682    -0.59500
O333        O  0.23518388  0.49266076  0.06656840    -0.57900
O334        O  0.22853649  0.49402969  0.91558006    -0.57900
O335        O  0.18601652  0.53557283  0.97296958    -0.57100
O336        O  0.24719241  0.51253749  0.17149118    -0.58300
C337        C  0.26156741  0.53409211  0.33860886     0.74300
O338        O  0.27337057  0.59438464  0.20972684    -0.59400
C339        C  0.23084398  0.52395696  0.13923098     0.74300
C340        C  0.19467119  0.57899001  0.26428744     0.76700
Cd341      Cd  0.24570860  0.55279215  0.23399821     1.37500
O342        O  0.24781871  0.51838257  0.30976355    -0.58300
O343        O  0.19812205  0.55310036  0.26561341    -0.57100
C344        C  0.29441032  0.58098719  0.19520974     0.76700
O345        O  0.21477871  0.59327857  0.24782934    -0.59500
O346        O  0.26867585  0.55690402  0.31846717    -0.57900
O347        O  0.22145518  0.54729791  0.15157694    -0.57900
O348        O  0.29241279  0.55498174  0.19763711    -0.57100
C349        C  0.87764220  0.65409301  0.93868599     0.86000
C350        C  0.87303802  0.68536531  0.92993710    -0.54200
C351        C  0.89175770  0.70164584  0.95414173     0.08900
C352        C  0.91376639  0.68508596  0.98486870     0.19900
C353        C  0.90753454  0.64939684  0.92086273    -0.54900
C354        C  0.92646399  0.66538789  0.94501525     0.09000
C355        C  0.87965460  0.64965800  0.99774473    -0.54500
C356        C  0.89782072  0.66587517  0.02260698     0.09600
H357        H  0.85658290  0.69392824  0.90623688     0.14100
H358        H  0.92887033  0.69845688  0.00415786    -0.00100
H359        H  0.91425960  0.63360187  0.89498335     0.14400
H360        H  0.86778881  0.63405217  0.01857840     0.14200
C361        C  0.91217516  0.86931699  0.93029129     0.86000
C362        C  0.94249477  0.86160178  0.91920449    -0.54200
C363        C  0.95284416  0.83951982  0.94806895     0.08900
C364        C  0.93125422  0.82867771  0.98783309     0.19900
C365        C  0.89645414  0.84161559  0.92490754    -0.54900
C366        C  0.90704304  0.82023412  0.95404715     0.09000
C367        C  0.91136549  0.87442511  0.98857072    -0.54500
C368        C  0.92090299  0.85357530  0.01868530     0.09600
H369        H  0.95459807  0.87377289  0.89236866     0.14100
H370        H  0.93760373  0.81221481  0.01477738    -0.00100
H371        H  0.87842116  0.83851721  0.90168552     0.14400
H372        H  0.90294396  0.89307444  0.00535014     0.14200
C373        C  0.11898442  0.84207422  0.94398483     0.86000
C374        C  0.12567864  0.81128143  0.93483408    -0.54200
C375        C  0.11030623  0.79321749  0.96415986     0.08900
C376        C  0.08924097  0.80759159  0.99906946     0.19900
C377        C  0.08750449  0.84446119  0.93459562    -0.54900
C378        C  0.07156560  0.82537020  0.96131271     0.09000
C379        C  0.12076018  0.84596424  0.00232558    -0.54500
C380        C  0.10546317  0.82861983  0.03136305     0.09600
H381        H  0.14090666  0.80442115  0.90700663     0.14100
H382        H  0.07854211  0.79193916  0.02248429    -0.00100
H383        H  0.07812152  0.86082302  0.91216459     0.14400
H384        H  0.13174173  0.86292315  0.01965141     0.14200
C385        C  0.08678018  0.62682638  0.97183391     0.86000
C386        C  0.06101298  0.62817678  0.93752465    -0.54200
C387        C  0.04424546  0.65045641  0.94572128     0.08900
C388        C  0.05649048  0.67097109  0.98436377     0.19900
C389        C  0.10201847  0.65404161  0.96095608    -0.54900
C390        C  0.08626533  0.67709949  0.96591772     0.09000
C391        C  0.07619963  0.63110130  0.02793874    -0.54500
C392        C  0.05978166  0.65388022  0.03456882     0.09600
H393        H  0.05611855  0.61198090  0.91079698     0.14100
H394        H  0.04351780  0.68944107  0.98909092    -0.00100
H395        H  0.12392399  0.65537510  0.95392072     0.14400
H396        H  0.08189481  0.61771250  0.06038613     0.14200
C397        C  0.10164101  0.85445120  0.33697855     0.86000
C398        C  0.07092703  0.85640110  0.35178486    -0.54200
C399        C  0.05373214  0.84158936  0.32071356     0.08900
C400        C  0.06921499  0.82520056  0.27870132     0.19900
C401        C  0.10768389  0.82298297  0.33820053    -0.54900
C402        C  0.09036584  0.80756253  0.30894844     0.09000
C403        C  0.10262104  0.86211474  0.27915596    -0.54500
C404        C  0.08682839  0.84649197  0.24852374     0.09600
H405        H  0.06329227  0.86821078  0.38407758     0.14100
H406        H  0.05537988  0.81321843  0.25363724    -0.00100
H407        H  0.12387983  0.81317885  0.35889989     0.14400
H408        H  0.11702735  0.87693446  0.26273184     0.14200
C409        C  0.88525571  0.85735317  0.32456636     0.86000
C410        C  0.87796362  0.82622566  0.32594231    -0.54200
C411        C  0.89720475  0.80922615  0.30494284     0.08900
C412        C  0.92148571  0.82508807  0.28040454     0.19900
C413        C  0.91436470  0.85865837  0.34876444    -0.54900
C414        C  0.93363296  0.84234108  0.32450243     0.09000
C415        C  0.89048235  0.86361393  0.26688774    -0.54500
C416        C  0.90840080  0.84656643  0.24277804     0.09600
H417        H  0.85892840  0.81765944  0.34011336     0.14100
H418        H  0.93655941  0.81114173  0.26198795    -0.00100
H419        H  0.91957996  0.87214545  0.38017468     0.14400
H420        H  0.88019635  0.88032148  0.24590257     0.14200
C421        C  0.09524638  0.63969137  0.30563940     0.86000
C422        C  0.10463226  0.66948119  0.31357201    -0.54200
C423        C  0.08441971  0.68862226  0.30866738     0.08900
C424        C  0.05629252  0.67668578  0.29340409     0.19900
C425        C  0.07048829  0.63574363  0.34276809    -0.54900
C426        C  0.04946698  0.65463127  0.33522893     0.09000
C427        C  0.08248244  0.64132863  0.25076979    -0.54500
C428        C  0.06165771  0.66006256  0.24453264     0.09600
H429        H  0.12581543  0.67555381  0.31902669     0.14100
H430        H  0.03995913  0.69235707  0.28795545    -0.00100
H431        H  0.06962817  0.61889835  0.37088751     0.14400
H432        H  0.08956953  0.62899158  0.21867971     0.14200
C433        C  0.88384373  0.63906232  0.32928107     0.86000
C434        C  0.91274707  0.63671109  0.35283440    -0.54200
C435        C  0.93194494  0.65300970  0.32841148     0.08900
C436        C  0.92011011  0.67111364  0.28351737     0.19900
C437        C  0.87684328  0.67057047  0.32996109    -0.54900
C438        C  0.89622023  0.68758323  0.30754610     0.09000
C439        C  0.88823985  0.63363703  0.27159314    -0.54500
C440        C  0.90590187  0.65074955  0.24677531     0.09600
H441        H  0.91783598  0.62266850  0.38472944     0.14100
H442        H  0.93590312  0.68423984  0.26448163    -0.00100
H443        H  0.85775532  0.67905797  0.34407780     0.14400
H444        H  0.87605465  0.61895790  0.25028101     0.14200
C445        C  0.88495571  0.14642783  0.04352536     0.86000
C446        C  0.91327189  0.13528154  0.05907512    -0.54200
C447        C  0.93374196  0.15400058  0.05531802     0.08900
C448        C  0.92444474  0.18271039  0.03421457     0.19900
C449        C  0.88079509  0.17242263  0.07652215    -0.54900
C450        C  0.90083143  0.19231034  0.07006600     0.09000
C451        C  0.89016697  0.15753365  0.98780029    -0.54500
C452        C  0.91016929  0.17693323  0.98309020     0.09600
H453        H  0.91764021  0.11369377  0.06759069     0.14100
H454        H  0.94127396  0.19772616  0.02883372    -0.00100
H455        H  0.86313867  0.17466272  0.10163701     0.14400
H456        H  0.87938954  0.15030757  0.95389068     0.14200
C457        C  0.09896893  0.13351906  0.06548160     0.86000
C458        C  0.10004200  0.16346945  0.08365904    -0.54200
C459        C  0.08079088  0.18058823  0.06093391     0.08900
C460        C  0.06105144  0.16540263  0.02402777     0.19900
C461        C  0.06906792  0.12403940  0.07614693    -0.54900
C462        C  0.04950882  0.14108573  0.05578343     0.09000
C463        C  0.10030389  0.13651548  0.00588606    -0.54500
C464        C  0.07984820  0.15181921  0.98316284     0.09600
H465        H  0.11594074  0.17098398  0.10905669     0.14100
H466        H  0.04415889  0.17832597  0.00826705    -0.00100
H467        H  0.06324031  0.10495065  0.09527575     0.14400
H468        H  0.11640423  0.12693481  0.98318027     0.14200
C469        C  0.88808971  0.36113956  0.06049489     0.86000
C470        C  0.88501828  0.33171716  0.08392986    -0.54200
C471        C  0.90056576  0.31195575  0.05963144     0.08900
C472        C  0.91867403  0.32381262  0.01500848     0.19900
C473        C  0.91962138  0.36673508  0.06171051    -0.54900
C474        C  0.93583748  0.34676835  0.03988071     0.09000
C475        C  0.88238194  0.35765122  0.00289395    -0.54500
C476        C  0.89861450  0.33950860  0.97801711     0.09600
H477        H  0.87119233  0.32679559  0.11579394     0.14100
H478        H  0.93127970  0.30777872  0.99600724    -0.00100
H479        H  0.92880604  0.38531250  0.07567181     0.14400
H480        H  0.86773632  0.37056728  0.98161807     0.14200
C481        C  0.10597278  0.34761868  0.06326622     0.86000
C482        C  0.07517183  0.35669743  0.06470787    -0.54200
C483        C  0.05721501  0.33920060  0.04106956     0.08900
C484        C  0.07225990  0.31504231  0.01473536     0.19900
C485        C  0.10607584  0.31765204  0.08437026    -0.54900
C486        C  0.08882636  0.30044820  0.05848106     0.09000
C487        C  0.11171136  0.34501518  0.00511632    -0.54500
C488        C  0.09395926  0.32904987  0.97897338     0.09600
H489        H  0.06790705  0.37587194  0.08033856     0.14100
H490        H  0.05837149  0.30079407  0.99445294    -0.00100
H491        H  0.11937252  0.31041154  0.11552817     0.14400
H492        H  0.12762743  0.35666202  0.98500383     0.14200
C493        C  0.08784543  0.13940400  0.67035464     0.86000
C494        C  0.05809252  0.13246410  0.65556053    -0.54200
C495        C  0.03858644  0.14735609  0.68079389     0.08900
C496        C  0.05045526  0.16898009  0.71770576     0.19900
C497        C  0.08963736  0.17060687  0.65825182    -0.54900
C498        C  0.07064147  0.18653532  0.68372722     0.09000
C499        C  0.08912172  0.13847414  0.72993941    -0.54500
C500        C  0.06932047  0.15267167  0.75566656     0.09600
H501        H  0.05277854  0.11754839  0.62654579     0.14100
H502        H  0.03391102  0.18054394  0.73712508    -0.00100
H503        H  0.10506855  0.18018034  0.63507998     0.14400
H504        H  0.10584271  0.12814300  0.75035199     0.14200
C505        C  0.87425020  0.15502506  0.71311566     0.86000
C506        C  0.87268302  0.18528982  0.69347882    -0.54200
C507        C  0.89668683  0.20014451  0.69707913     0.08900
C508        C  0.91984083  0.18281054  0.72196926     0.19900
C509        C  0.89931501  0.14204010  0.68563471    -0.54900
C510        C  0.92287736  0.15681186  0.68984516     0.09000
C511        C  0.88485027  0.15720120  0.76909550    -0.54500
C512        C  0.90783055  0.17296155  0.77424747     0.09600
H513        H  0.85315414  0.19437999  0.68250615     0.14100
H514        H  0.93996257  0.19276962  0.72437546    -0.00100
H515        H  0.89918074  0.12178471  0.66843858     0.14400
H516        H  0.87473590  0.14809831  0.80264973     0.14200
C517        C  0.88595678  0.36890735  0.66694762     0.86000
C518        C  0.91694816  0.37502946  0.66373717    -0.54200
C519        C  0.93316452  0.35706230  0.69136421     0.08900
C520        C  0.91667636  0.33435241  0.72017065     0.19900
C521        C  0.88470996  0.33877314  0.64825187    -0.54900
C522        C  0.90012438  0.32020317  0.67685708     0.09000
C523        C  0.87899086  0.36654884  0.72517063    -0.54500
C524        C  0.89532548  0.34926930  0.75318784     0.09600
H525        H  0.92574455  0.39053425  0.63799522     0.14100
H526        H  0.92947596  0.32050108  0.74473406    -0.00100
H527        H  0.87439602  0.33274878  0.61322107     0.14400
H528        H  0.86253520  0.37821936  0.74316081     0.14200
C529        C  0.10165079  0.35339664  0.66639341     0.86000
C530        C  0.10155512  0.32270197  0.65007091    -0.54200
C531        C  0.08316606  0.30648524  0.67723777     0.08900
C532        C  0.06633086  0.32261402  0.71794374     0.19900
C533        C  0.07131634  0.36202571  0.65921192    -0.54900
C534        C  0.05275834  0.34661176  0.68671582     0.09000
C535        C  0.10651279  0.35119094  0.72507719    -0.54500
C536        C  0.08817012  0.33601547  0.75269450     0.09600
H537        H  0.11437021  0.31380750  0.62104573     0.14100
H538        H  0.05130649  0.30977121  0.73989675    -0.00100
H539        H  0.06482225  0.37836881  0.63267799     0.14400
H540        H  0.12383781  0.36091171  0.74363891     0.14200
O541        O  0.74472261  0.48769478  0.68049990    -0.58300
C542        C  0.76104554  0.47656400  0.85272647     0.74300
O543        O  0.72775160  0.40428527  0.76451125    -0.59400
C544        C  0.72607188  0.47565175  0.65548546     0.74300
C545        C  0.79465585  0.42872667  0.70768644     0.76700
Cd546      Cd  0.74582228  0.45143111  0.75343831     1.37500
O547        O  0.74004388  0.48532116  0.82833575    -0.58300
O548        O  0.78951317  0.45433100  0.70689086    -0.57100
C549        C  0.70387852  0.41136701  0.77899862     0.76700
O550        O  0.77757080  0.41340163  0.73151705    -0.59500
O551        O  0.77457506  0.45776375  0.83087890    -0.57900
O552        O  0.71550941  0.45485312  0.67767377    -0.57900
O553        O  0.69984030  0.43693230  0.78527964    -0.57100
O554        O  0.72648766  0.50418249  0.43419891    -0.58300
C555        C  0.71634010  0.48480931  0.60367040     0.74300
O556        O  0.65071001  0.53258250  0.52905444    -0.59400
C557        C  0.71294810  0.52070191  0.40514288     0.74300
C558        C  0.66353903  0.45402960  0.47414092     0.76700
Cd559      Cd  0.69135273  0.50334679  0.50662051     1.37500
O560        O  0.72894307  0.50206653  0.57466405    -0.58300
O561        O  0.68903825  0.45731237  0.46717778    -0.57100
C562        C  0.66432769  0.55092226  0.55215276     0.76700
O563        O  0.65086881  0.47378872  0.49551655    -0.59500
O564        O  0.69436713  0.47516122  0.58580582    -0.57900
O565        O  0.69091159  0.53017208  0.42401876    -0.57900
O566        O  0.69011296  0.54762053  0.55202004    -0.57100
O567        O  0.75524418  0.50091938  0.93411562    -0.58300
C568        C  0.77202549  0.52256423  0.10295375     0.74300
O569        O  0.83668819  0.47918647  0.01674300    -0.59400
C570        C  0.77029727  0.48722208  0.90340795     0.74300
C571        C  0.81592957  0.55862935  0.96201455     0.76700
Cd572      Cd  0.79367449  0.50704094  0.00110414     1.37500
O573        O  0.75894706  0.50580260  0.07503524    -0.58300
O574        O  0.79038319  0.55483043  0.96765079    -0.57100
C575        C  0.82432284  0.45928811  0.03929843     0.76700
O576        O  0.83146347  0.53847643  0.97465628    -0.59500
O577        O  0.79351074  0.53276144  0.08291933    -0.57900
O578        O  0.79448762  0.48240735  0.91868357    -0.57900
O579        O  0.79865903  0.46217158  0.04472904    -0.57100
O580        O  0.74643620  0.51661435  0.18346852    -0.58300
C581        C  0.72227708  0.52937036  0.35265121     0.74300
O582        O  0.77105498  0.59210414  0.28090721    -0.59400
C583        C  0.76296537  0.53068933  0.15558370     0.74300
C584        C  0.69680158  0.58001224  0.21284872     0.76700
Cd585      Cd  0.74324207  0.55197567  0.25496333     1.37500
O586        O  0.73965185  0.51579955  0.32635059    -0.58300
O587        O  0.69860587  0.55397696  0.21556348    -0.57100
C588        C  0.78905738  0.57732112  0.30392669     0.76700
O589        O  0.71697144  0.59356376  0.22996961    -0.59500
O590        O  0.71316747  0.55136176  0.33172021    -0.57900
O591        O  0.77166721  0.55264801  0.17526626    -0.57900
O592        O  0.78536342  0.55152200  0.30389316    -0.57100
C593        C  0.84044816  0.38296625  0.62608204    -0.02300
C594        C  0.86680341  0.39113065  0.64257404     0.02600
C595        C  0.86841092  0.41795976  0.66383060    -0.02400
C596        C  0.84499835  0.43005132  0.68640517    -0.02400
C597        C  0.81920927  0.41733931  0.68150651     0.07500
C598        C  0.81672736  0.39496344  0.64777919    -0.02600
Br599      Br  0.78089920  0.38182762  0.62852397    -0.01200
Br600      Br  0.83676833  0.36174668  0.56423646    -0.01300
Br601      Br  0.84915544  0.46245634  0.72811542    -0.01200
Br602      Br  0.90232245  0.43826930  0.66433112    -0.01200
C603        C  0.97942542  0.35963081  0.73406566    -0.02300
C604        C  0.96390986  0.35734780  0.68853575     0.07400
C605        C  0.97789601  0.35414917  0.64082462    -0.02400
C606        C  0.00695215  0.35274691  0.63930215    -0.02400
C607        C  0.02229362  0.35228292  0.68604228     0.07500
C608        C  0.00815560  0.35678835  0.73297912    -0.02600
Br609      Br  0.02776019  0.36154813  0.79631024    -0.01200
Br610      Br  0.96170596  0.36799684  0.79837982    -0.01300
Br611      Br  0.02505723  0.35057948  0.57270303    -0.01200
Br612      Br  0.95734353  0.34869259  0.57793812    -0.01200
C613        C  0.92053413  0.24725459  0.70538092    -0.02300
C614        C  0.89928978  0.23073448  0.68440456     0.07400
C615        C  0.88041344  0.24461373  0.65083238    -0.02400
C616        C  0.87837472  0.27370208  0.65137751    -0.02400
C617        C  0.90094638  0.28939961  0.66915850     0.07500
C618        C  0.92379854  0.27436993  0.68756725    -0.02600
Br619      Br  0.96044573  0.28875385  0.68533815    -0.01200
Br620      Br  0.94147510  0.23928512  0.76736906    -0.01300
Br621      Br  0.84295745  0.28942068  0.63486148    -0.01200
Br622      Br  0.86014655  0.22568527  0.59816092    -0.01200
C623        C  0.96556840  0.16047178  0.63583854    -0.02300
C624        C  0.95066924  0.14676993  0.67544544     0.07400
C625        C  0.96441683  0.12816603  0.70908702    -0.02400
C626        C  0.99331108  0.12692014  0.70870758    -0.02400
C627        C  0.00849335  0.14333503  0.67329249     0.07500
C628        C  0.99440906  0.15770060  0.63337549    -0.02600
Br629      Br  0.01461397  0.17334589  0.57560856    -0.01200
Br630      Br  0.94644937  0.18409189  0.58689021    -0.01300
Br631      Br  0.01181920  0.10297124  0.75732935    -0.01200
Br632      Br  0.94383848  0.10635118  0.75906360    -0.01200
C633        C  0.05516322  0.26372700  0.66356918    -0.02300
C634        C  0.08097481  0.27574821  0.67196702     0.07400
C635        C  0.10347047  0.25826294  0.68396960    -0.02400
C636        C  0.09946501  0.22960275  0.69152612    -0.02400
C637        C  0.07334500  0.21753512  0.68329545     0.07500
C638        C  0.05094509  0.23522166  0.67164453    -0.02600
Br639      Br  0.01380737  0.22191666  0.67079594    -0.01200
Br640      Br  0.02610949  0.28578069  0.63469133    -0.01300
Br641      Br  0.12891730  0.20789459  0.72220332    -0.01200
Br642      Br  0.13949118  0.27357621  0.69528679    -0.01200
C643        C  0.09333042  0.30661382  0.89149008    -0.02300
C644        C  0.09311754  0.33061243  0.92102850     0.07400
C645        C  0.09137466  0.35660429  0.89508940    -0.02400
C646        C  0.09137170  0.35834299  0.84054840    -0.02400
C647        C  0.08984927  0.33403542  0.81084401     0.07500
C648        C  0.09066371  0.30823957  0.83720211    -0.02600
Br649      Br  0.08957812  0.27454628  0.80034093    -0.01200
Br650      Br  0.09860275  0.27133573  0.92474775    -0.01300
Br651      Br  0.09163553  0.39473295  0.80815033    -0.01200
Br652      Br  0.08491058  0.39001206  0.93354511    -0.01200
C653        C  0.84011788  0.38322297  0.06492206    -0.02300
C654        C  0.86811411  0.38394293  0.08026190     0.07400
C655        C  0.87769267  0.40952365  0.09826169    -0.02400
C656        C  0.86375029  0.43432684  0.08449402    -0.02400
C657        C  0.83861606  0.43352679  0.05730845     0.07500
C658        C  0.82614716  0.40765957  0.05027341    -0.02600
Br659      Br  0.79123952  0.40488237  0.01493655    -0.01200
Br660      Br  0.82093444  0.34893610  0.06034734    -0.01300
Br661      Br  0.87861168  0.46919206  0.10503832    -0.01200
Br662      Br  0.90438203  0.41008091  0.15318825    -0.01200
C663        C  0.89523321  0.31783522  0.88987789    -0.02300
C664        C  0.89949599  0.34120948  0.92011347     0.07400
C665        C  0.90204271  0.36745783  0.89508515    -0.02400
C666        C  0.89826004  0.37040791  0.84129909    -0.02400
C667        C  0.89423421  0.34686415  0.81093580     0.07500
C668        C  0.89203595  0.32075851  0.83573137    -0.02600
Br669      Br  0.88135056  0.28946128  0.79641740    -0.01200
Br670      Br  0.89424306  0.28180742  0.92219421    -0.01300
Br671      Br  0.90015489  0.40699460  0.80987586    -0.01200
Br672      Br  0.91403126  0.39934927  0.93310082    -0.01200
C673        C  0.98212049  0.34280979  0.99396210    -0.02300
C674        C  0.96705636  0.34723902  0.04000539     0.07400
C675        C  0.98212429  0.35060445  0.08656056    -0.02400
C676        C  0.01125782  0.34830988  0.08700176    -0.02400
C677        C  0.02620151  0.34325170  0.04068109     0.07500
C678        C  0.01104504  0.34108546  0.99422371    -0.02600
Br679      Br  0.02900992  0.33712484  0.92854144    -0.01200
Br680      Br  0.96400630  0.34021256  0.92822162    -0.01300
Br681      Br  0.03002297  0.34986722  0.15282624    -0.01200
Br682      Br  0.96313223  0.35608490  0.15155641    -0.01200
C683        C  0.07818247  0.12730252  0.89667996    -0.02300
C684        C  0.07517328  0.15203998  0.92516932     0.07400
C685        C  0.06728227  0.17643568  0.89774450    -0.02400
C686        C  0.06424391  0.17665545  0.84316254    -0.02400
C687        C  0.06842952  0.15232089  0.81445889     0.07500
C688        C  0.07422977  0.12741624  0.84254421    -0.02600
Br689      Br  0.07566696  0.09207054  0.80863240    -0.01200
Br690      Br  0.08594379  0.09168815  0.93033880    -0.01300
Br691      Br  0.05579318  0.21145058  0.80944979    -0.01200
Br692      Br  0.06204089  0.21078577  0.93303453    -0.01200
C693        C  0.10657040  0.22475504  0.04365494    -0.02300
C694        C  0.08293186  0.21140094  0.06327734     0.07400
C695        C  0.06171819  0.22768246  0.08432005    -0.02400
C696        C  0.06413704  0.25672410  0.08539659    -0.02400
C697        C  0.08811074  0.26981969  0.06679201     0.07500
C698        C  0.10993772  0.25334756  0.04879542    -0.02600
Br699      Br  0.14433131  0.26957920  0.02816524    -0.01200
Br700      Br  0.13209844  0.20535641  0.00040898    -0.01300
Br701      Br  0.03503445  0.27844106  0.11464094    -0.01200
Br702      Br  0.02890313  0.21057467  0.11016902    -0.01200
C703        C  0.93907449  0.18097014  0.85119005    -0.02300
C704        C  0.91401463  0.18540370  0.82506130     0.07400
C705        C  0.89318794  0.20034051  0.85040483    -0.02400
C706        C  0.89342495  0.20179427  0.90443013    -0.02400
C707        C  0.91579523  0.19073621  0.93225626     0.07500
C708        C  0.94028711  0.18536601  0.90500637    -0.02600
Br709      Br  0.97516064  0.18747591  0.93933828    -0.01200
Br710      Br  0.97145596  0.16968504  0.81446143    -0.01300
Br711      Br  0.86256705  0.21730753  0.94037958    -0.01200
Br712      Br  0.86539436  0.21988209  0.81149153    -0.01200
C713        C  0.00399051  0.12859545  0.01793553    -0.02300
C714        C  0.01950083  0.13641328  0.06117746     0.07400
C715        C  0.00565000  0.14276279  0.10758973    -0.02400
C716        C  0.97697944  0.14696509  0.10688309    -0.02400
C717        C  0.96264512  0.14506340  0.05979950     0.07500
C718        C  0.97548138  0.13243492  0.01753155    -0.02600
Br719      Br  0.95400612  0.11937183  0.95997716    -0.01200
Br720      Br  0.02095118  0.11077097  0.96068860    -0.01300
Br721      Br  0.95694658  0.15247780  0.17041011    -0.01200
Br722      Br  0.02566334  0.14509726  0.17170244    -0.01200
C723        C  0.87451999  0.26667311  0.06490775    -0.02300
C724        C  0.89900235  0.28151432  0.07246704     0.07400
C725        C  0.92226132  0.26685576  0.09051746    -0.02400
C726        C  0.92182982  0.23779856  0.09597433    -0.02400
C727        C  0.89804658  0.22255630  0.08359967     0.07500
C728        C  0.87355548  0.23776278  0.07320252    -0.02600
Br729      Br  0.83793225  0.22049812  0.07045781    -0.01200
Br730      Br  0.84275780  0.28497581  0.03639685    -0.01300
Br731      Br  0.95386776  0.21938952  0.12356997    -0.01200
Br732      Br  0.95509321  0.28632053  0.10807864    -0.01200
C733        C  0.83673978  0.62726292  0.37069687    -0.02300
C734        C  0.86217918  0.61835220  0.35042210     0.07400
C735        C  0.86366461  0.59047076  0.33461125    -0.02400
C736        C  0.83968524  0.57649841  0.32065758    -0.02400
C737        C  0.81389077  0.58931144  0.32750711     0.07500
C738        C  0.81240218  0.61349451  0.35706246    -0.02600
Br739      Br  0.77736326  0.62704148  0.38079846    -0.01200
Br740      Br  0.83594361  0.65327705  0.42617134    -0.01300
Br741      Br  0.84308065  0.54134134  0.28659283    -0.01200
Br742      Br  0.89828614  0.57206979  0.32580700    -0.01200
C743        C  0.00576185  0.62668090  0.34411938    -0.02300
C744        C  0.02010799  0.65143741  0.35302507     0.07400
C745        C  0.00439106  0.67530187  0.36412769    -0.02400
C746        C  0.97555538  0.67529929  0.35919893    -0.02400
C747        C  0.96193679  0.65184729  0.34114491     0.07500
C748        C  0.97735233  0.62746949  0.33398070    -0.02600
Br749      Br  0.96111582  0.59606517  0.30220840    -0.01200
Br750      Br  0.02370827  0.59110726  0.34693446    -0.01300
Br751      Br  0.95501961  0.70780288  0.37651188    -0.01200
Br752      Br  0.02202843  0.70830418  0.38700453    -0.01200
C753        C  0.89070994  0.76302862  0.35260517    -0.02300
C754        C  0.89473389  0.77822646  0.30568368     0.07400
C755        C  0.89757309  0.76358836  0.25947103    -0.02400
C756        C  0.89846481  0.73454877  0.26007191    -0.02400
C757        C  0.89438048  0.71892899  0.30658266     0.07500
C758        C  0.88987626  0.73374496  0.35291042    -0.02600
Br759      Br  0.88507922  0.71439444  0.41856607    -0.01200
Br760      Br  0.88858011  0.78200183  0.41773742    -0.01300
Br761      Br  0.90539000  0.71772953  0.19500050    -0.01200
Br762      Br  0.89848776  0.78300057  0.19356100    -0.01200
C763        C  0.09062903  0.76158798  0.35736922    -0.02300
C764        C  0.09155460  0.77664241  0.30944887     0.07400
C765        C  0.09384391  0.76170243  0.26288123    -0.02400
C766        C  0.09581710  0.73288469  0.26452043    -0.02400
C767        C  0.09026763  0.71842237  0.31063187     0.07500
C768        C  0.08990994  0.73250607  0.35767541    -0.02600
Br769      Br  0.09065299  0.71173870  0.42226788    -0.01200
Br770      Br  0.08668885  0.78010718  0.42276042    -0.01300
Br771      Br  0.10907658  0.71311615  0.20495293    -0.01200
Br772      Br  0.09195844  0.77862139  0.19543476    -0.01200
C773        C  0.00778472  0.81769380  0.33545297    -0.02300
C774        C  0.02290890  0.84213454  0.32608587     0.07400
C775        C  0.00827353  0.86726803  0.32037233    -0.02400
C776        C  0.97925418  0.86778866  0.32278762    -0.02400
C777        C  0.96420079  0.84336231  0.33310257     0.07500
C778        C  0.97896123  0.81857048  0.34130941    -0.02600
Br779      Br  0.95974155  0.78547693  0.36177503    -0.01200
Br780      Br  0.02556251  0.78229245  0.33805828    -0.01300
Br781      Br  0.96071437  0.90158726  0.30433012    -0.01200
Br782      Br  0.02751374  0.90083867  0.30243794    -0.01200
C783        C  0.03610381  0.63806477  0.11595333    -0.02300
C784        C  0.04695895  0.66008813  0.08616041     0.07400
C785        C  0.04831090  0.68614464  0.11018633    -0.02400
C786        C  0.04628017  0.68737695  0.16475804    -0.02400
C787        C  0.04644590  0.66265697  0.19439688     0.07500
C788        C  0.03745169  0.63865125  0.17011829    -0.02600
Br789      Br  0.02624863  0.60705686  0.21073109    -0.01200
Br790      Br  0.01657897  0.60904525  0.08296428    -0.01300
Br791      Br  0.03855221  0.72204370  0.19700918    -0.01200
Br792      Br  0.05162649  0.72030278  0.07152148    -0.01200
C793        C  0.07260079  0.85242026  0.15606623    -0.02300
C794        C  0.09284625  0.84507910  0.19239455     0.07400
C795        C  0.11916160  0.83657164  0.17488499    -0.02400
C796        C  0.12341701  0.83160269  0.12198920    -0.02400
C797        C  0.10142237  0.83473401  0.08682609     0.07500
C798        C  0.07754797  0.84875573  0.10306035    -0.02600
Br799      Br  0.05474200  0.86830574  0.05341784    -0.01200
Br800      Br  0.03890987  0.86919824  0.17853243    -0.01300
Br801      Br  0.15998829  0.82278283  0.09778965    -0.01200
Br802      Br  0.14877519  0.82847069  0.22291382    -0.01200
C803        C  0.10383852  0.74900253  0.91410477    -0.02300
C804        C  0.11106337  0.76227538  0.96053542     0.07400
C805        C  0.11567893  0.74570227  0.00555223    -0.02400
C806        C  0.11018011  0.71719543  0.00558485    -0.02400
C807        C  0.09822211  0.70531680  0.96193677     0.07500
C808        C  0.09797709  0.72044404  0.91480509    -0.02600
Br809      Br  0.09202762  0.70134234  0.85099163    -0.01200
Br810      Br  0.10030707  0.76970888  0.84997180    -0.01300
Br811      Br  0.12002658  0.69401951  0.06456077    -0.01200
Br812      Br  0.12922557  0.76155144  0.06794195    -0.01200
C813        C  0.89170201  0.85605197  0.09908577    -0.02300
C814        C  0.91796331  0.85388737  0.07602848     0.07400
C815        C  0.94123094  0.85096216  0.10766642    -0.02400
C816        C  0.93842393  0.84787127  0.16178775    -0.02400
C817        C  0.91208394  0.84833760  0.18508905     0.07500
C818        C  0.88862597  0.85165304  0.15277385    -0.02600
Br819      Br  0.85167880  0.84631958  0.17956488    -0.01200
Br820      Br  0.85919182  0.86338522  0.05744113    -0.01300
Br821      Br  0.97122213  0.84313625  0.20216443    -0.01200
Br822      Br  0.97716792  0.85474313  0.07717573    -0.01200
C823        C  0.99963525  0.83433867  0.90066526    -0.02300
C824        C  0.98215743  0.82823975  0.94339366     0.07400
C825        C  0.99387814  0.81142902  0.98293614    -0.02400
C826        C  0.02218896  0.81263184  0.99292955    -0.02400
C827        C  0.04052679  0.82316353  0.95401188     0.07500
C828        C  0.02844244  0.83026968  0.90514529    -0.02600
Br829      Br  0.05006514  0.83020161  0.84203324    -0.01200
Br830      Br  0.98442271  0.84187827  0.83263271    -0.01300
Br831      Br  0.03201790  0.80026607  0.06220056    -0.01200
Br832      Br  0.97617424  0.77771883  0.00590829    -0.01200
C833        C  0.82905343  0.63558099  0.94434503    -0.02300
C834        C  0.85479044  0.63502427  0.91847454     0.07400
C835        C  0.86095854  0.61097579  0.89042502    -0.02400
C836        C  0.84777171  0.58591818  0.90366332    -0.02400
C837        C  0.82707461  0.58533327  0.94216095     0.07500
C838        C  0.81652565  0.61065400  0.95997995    -0.02600
Br839      Br  0.78745474  0.61161388  0.01106561    -0.01200
Br840      Br  0.81162796  0.67009857  0.96105516    -0.01300
Br841      Br  0.85732575  0.55272284  0.86756614    -0.01200
Br842      Br  0.88145608  0.61352730  0.82644137    -0.01200
C843        C  0.87665719  0.66404798  0.11188823    -0.02300
C844        C  0.90068148  0.66385038  0.08054822     0.07400
C845        C  0.92652120  0.66002523  0.10497733    -0.02400
C846        C  0.92805058  0.65437570  0.15875524    -0.02400
C847        C  0.90414075  0.65409502  0.18936546     0.07500
C848        C  0.87833890  0.65946908  0.16568238    -0.02600
Br849      Br  0.84513876  0.66437923  0.20671759    -0.01200
Br850      Br  0.84103961  0.67355935  0.08318148    -0.01300
Br851      Br  0.96303914  0.64666390  0.19071455    -0.01200
Br852      Br  0.96043591  0.66281028  0.06705903    -0.01200
C853        C  0.96781775  0.63423682  0.94854087    -0.02300
C854        C  0.95653595  0.66069726  0.93865243     0.07400
C855        C  0.97398419  0.68230529  0.92270293    -0.02400
C856        C  0.00247643  0.67785975  0.91860422    -0.02400
C857        C  0.01423022  0.65193012  0.93176278     0.07500
C858        C  0.99619306  0.62951901  0.94247974    -0.02600
Br859      Br  0.00846397  0.59171707  0.94715271    -0.01200
Br860      Br  0.94513960  0.60501137  0.97788143    -0.01300
Br861      Br  0.02499813  0.70733636  0.89153538    -0.01200
Br862      Br  0.95937143  0.71847741  0.90739558    -0.01200
C863        C  0.88873830  0.74758893  0.99726257    -0.02300
C864        C  0.89136774  0.73255245  0.95135848     0.07400
C865        C  0.89562851  0.74727274  0.90403710    -0.02400
C866        C  0.90105495  0.77596165  0.90441081    -0.02400
C867        C  0.89819257  0.79080984  0.95080401     0.07500
C868        C  0.89030815  0.77641239  0.99617985    -0.02600
Br869      Br  0.88032695  0.79571484  0.05736661    -0.01200
Br870      Br  0.88315490  0.72952146  0.06309095    -0.01300
Br871      Br  0.91557743  0.79392440  0.84290828    -0.01200
Br872      Br  0.89563787  0.72827860  0.83898114    -0.01200
C873        C  0.14322031  0.58219442  0.26228721    -0.02300
C874        C  0.16844434  0.59163420  0.28164045     0.07400
C875        C  0.16815985  0.61111224  0.32158276    -0.02400
C876        C  0.14314498  0.62327052  0.33736891    -0.02400
C877        C  0.11855390  0.61783383  0.31029508     0.07500
C878        C  0.11839326  0.59412059  0.27908116    -0.02600
Br879      Br  0.08451147  0.57556424  0.26487894    -0.01200
Br880      Br  0.14241423  0.55445134  0.20957349    -0.01300
Br881      Br  0.14175409  0.64291819  0.40177559    -0.01200
Br882      Br  0.20184869  0.62049966  0.35597421    -0.01200
C883        C  0.12557001  0.59837122  0.92752433    -0.02300
C884        C  0.10381588  0.60001863  0.96442578     0.07400
C885        C  0.09785347  0.57556786  0.99366783    -0.02400
C886        C  0.11682676  0.55374326  0.99679278    -0.02400
C887        C  0.14035367  0.55395374  0.96511645     0.07500
C888        C  0.14425690  0.57593244  0.92928617    -0.02600
Br889      Br  0.17478767  0.57496587  0.88133504    -0.01200
Br890      Br  0.12755300  0.62350234  0.86843689    -0.01300
Br891      Br  0.11120391  0.52466885  0.04847826    -0.01200
Br892      Br  0.06224664  0.56837607  0.02280958    -0.01200
C893        C  0.17108557  0.38830626  0.05966150    -0.02300
C894        C  0.15960943  0.41471556  0.06751270     0.07400
C895        C  0.13499841  0.41660528  0.09647156    -0.02400
C896        C  0.11981053  0.39258492  0.10842201    -0.02400
C897        C  0.12754493  0.36726803  0.08658384     0.07500
C898        C  0.15552269  0.36463470  0.07187484    -0.02600
Br899      Br  0.17253204  0.32902581  0.06684329    -0.01200
Br900      Br  0.20671475  0.38390976  0.02746483    -0.01300
Br901      Br  0.09382282  0.39281347  0.16480960    -0.01200
Br902      Br  0.12259234  0.45168377  0.12172835    -0.01200
C903        C  0.14592983  0.41459085  0.68333619    -0.02300
C904        C  0.17187377  0.40240294  0.67473839     0.07400
C905        C  0.17336324  0.37850383  0.64433398    -0.02400
C906        C  0.14906414  0.36558372  0.62740670    -0.02400
C907        C  0.12299523  0.37461020  0.64518629     0.07500
C908        C  0.12188494  0.40176617  0.66588251    -0.02600
Br909      Br  0.08784644  0.42207464  0.67388518    -0.01200
Br910      Br  0.14239402  0.44722365  0.72526321    -0.01300
Br911      Br  0.15169015  0.34111063  0.56967920    -0.01200
Br912      Br  0.20859644  0.36353622  0.62454942    -0.01200
C913        C  0.47959632  0.85533973  0.12725851    -0.02300
C914        C  0.46553561  0.86392657  0.17213832     0.07400
C915        C  0.48076098  0.87629076  0.21168532    -0.02400
C916        C  0.50954247  0.87503105  0.21155267    -0.02400
C917        C  0.52337124  0.86091290  0.17217959     0.07500
C918        C  0.50866464  0.85398778  0.12716388    -0.02600
Br919      Br  0.52826452  0.84408839  0.06516321    -0.01200
Br920      Br  0.45918220  0.84578843  0.06636510    -0.01300
Br921      Br  0.52997805  0.89485641  0.26278108    -0.01200
Br922      Br  0.46265635  0.89701270  0.26400314    -0.01200
C923        C  0.65027342  0.63146955  0.14265953    -0.02300
C924        C  0.62474404  0.62461119  0.16569834     0.07400
C925        C  0.62229818  0.59744185  0.18700672    -0.02400
C926        C  0.64582436  0.58329145  0.20432076    -0.02400
C927        C  0.67199750  0.59372112  0.19173978     0.07500
C928        C  0.67407357  0.61645698  0.15698118    -0.02600
Br929      Br  0.70920138  0.62626018  0.12727162    -0.01200
Br930      Br  0.65183636  0.65563620  0.08255041    -0.01300
Br931      Br  0.64146362  0.55177531  0.25090063    -0.01200
Br932      Br  0.58727542  0.57952723  0.19579684    -0.01200
C933        C  0.61446320  0.74205491  0.20599867    -0.02300
C934        C  0.59187650  0.72593120  0.19112729     0.07400
C935        C  0.56779562  0.73934384  0.17327176    -0.02400
C936        C  0.56589980  0.76823795  0.17199688    -0.02400
C937        C  0.58753811  0.78427458  0.19051245     0.07500
C938        C  0.61164833  0.77095246  0.20891373    -0.02600
Br939      Br  0.63972617  0.79168531  0.24344434    -0.01200
Br940      Br  0.64941758  0.72496133  0.22222656    -0.01300
Br941      Br  0.53370511  0.78554716  0.14311667    -0.01200
Br942      Br  0.53766760  0.71880551  0.14644377    -0.01200
C943        C  0.34616510  0.58367210  0.19119990    -0.02300
C944        C  0.32023325  0.59487652  0.17762883     0.07400
C945        C  0.31941981  0.61903708  0.14599151    -0.02400
C946        C  0.34383121  0.63349217  0.13396430    -0.02400
C947        C  0.36868660  0.62593532  0.15866203     0.07500
C948        C  0.37030486  0.59853442  0.17975871    -0.02600
Br949      Br  0.40513324  0.58068271  0.19461730    -0.01200
Br950      Br  0.34922262  0.54936948  0.23065963    -0.01300
Br951      Br  0.34428296  0.65754399  0.07364687    -0.01200
Br952      Br  0.28509705  0.63217355  0.11744385    -0.01200
C953        C  0.42755159  0.74139037  0.17145744    -0.02300
C954        C  0.40357422  0.72677124  0.18524319     0.07400
C955        C  0.38007792  0.74186934  0.20062951    -0.02400
C956        C  0.38104533  0.77095869  0.20423844    -0.02400
C957        C  0.40508791  0.78574207  0.18961700     0.07500
C958        C  0.42826506  0.77048285  0.17339161    -0.02600
Br959      Br  0.46135102  0.78891723  0.15288710    -0.01200
Br960      Br  0.45951256  0.72171866  0.14773230    -0.01300
Br961      Br  0.35016139  0.78972946  0.23551364    -0.01200
Br962      Br  0.34722593  0.72259686  0.22252578    -0.01200
C963        C  0.48190632  0.65335337  0.24293927    -0.02300
C964        C  0.46795886  0.65382568  0.19535808     0.07400
C965        C  0.48366342  0.65338904  0.14909584    -0.02400
C966        C  0.51276615  0.65412774  0.15127242    -0.02400
C967        C  0.52642388  0.65720589  0.19976550     0.07500
C968        C  0.51019595  0.65762199  0.24536098    -0.02600
Br969      Br  0.52456845  0.66465948  0.31333883    -0.01200
Br970      Br  0.46348158  0.64269487  0.30594049    -0.01300
Br971      Br  0.53288263  0.65416793  0.08627272    -0.01200
Br972      Br  0.46576356  0.65298540  0.08228902    -0.01200
C973        C  0.66312365  0.60127658  0.57830565    -0.02300
C974        C  0.65082481  0.57484148  0.57814563     0.07400
C975        C  0.62604193  0.57123445  0.60609457    -0.02400
C976        C  0.61209290  0.59431077  0.62618766    -0.02400
C977        C  0.62004790  0.62126519  0.61114368     0.07500
C978        C  0.64800196  0.62431976  0.59594821    -0.02600
Br979      Br  0.66491455  0.66017676  0.59343124    -0.01200
Br980      Br  0.69972089  0.60698701  0.55108915    -0.01300
Br981      Br  0.58841768  0.58920067  0.68546971    -0.01200
Br982      Br  0.61193288  0.53477090  0.62048858    -0.01200
C983        C  0.58266523  0.63282822  0.41000741    -0.02300
C984        C  0.58920785  0.65572231  0.44031567     0.07400
C985        C  0.60143122  0.67865378  0.41586497    -0.02400
C986        C  0.59923338  0.68253257  0.36190828    -0.02400
C987        C  0.58966944  0.66096772  0.33101605     0.07500
C988        C  0.58233285  0.63560268  0.35561311    -0.02600
Br989      Br  0.56942551  0.60506470  0.31592175    -0.01200
Br990      Br  0.57627429  0.59704037  0.44244527    -0.01300
Br991      Br  0.60907038  0.71758407  0.33205404    -0.01200
Br992      Br  0.62724240  0.70036170  0.45400544    -0.01200
C993        C  0.60392912  0.84663993  0.39769839    -0.02300
C994        C  0.58076834  0.84075938  0.42866825     0.07400
C995        C  0.55545211  0.83677854  0.40258789    -0.02400
C996        C  0.55460688  0.83715807  0.34719820    -0.02400
C997        C  0.57782075  0.84699785  0.31799960     0.07500
C998        C  0.60017708  0.85650293  0.34758049    -0.02600
Br999      Br  0.61283333  0.89411381  0.34058766    -0.01200
Br1000     Br  0.64140420  0.84334355  0.42121576    -0.01300
Br1001     Br  0.52003248  0.82769308  0.31587114    -0.01200
Br1002     Br  0.52141478  0.83311422  0.44068675    -0.01200
C1003       C  0.59198346  0.76341318  0.51864402    -0.02300
C1004       C  0.59405012  0.77844218  0.56414113     0.07400
C1005       C  0.59187565  0.76407671  0.61223034    -0.02400
C1006       C  0.58772825  0.73503187  0.61359526    -0.02400
C1007       C  0.58343226  0.72040739  0.56686257     0.07500
C1008       C  0.58217439  0.73644517  0.51998647    -0.02600
Br1009     Br  0.56175211  0.72727366  0.45860186    -0.01200
Br1010     Br  0.60474738  0.77862966  0.45346431    -0.01300
Br1011     Br  0.58314388  0.71674224  0.68025083    -0.01200
Br1012     Br  0.59290187  0.78419537  0.67605169    -0.01200
C1013       C  0.33020477  0.63305787  0.57161242    -0.02300
C1014       C  0.35666988  0.62956936  0.59404446     0.07400
C1015       C  0.36228904  0.60375062  0.61810728    -0.02400
C1016       C  0.34774135  0.58025384  0.60255140    -0.02400
C1017       C  0.32593382  0.58311455  0.56686520     0.07500
C1018       C  0.31550135  0.60978114  0.55565408    -0.02600
Br1019     Br  0.28304249  0.61495253  0.51354896    -0.01200
Br1020     Br  0.31578682  0.66938008  0.55545267    -0.01300
Br1021     Br  0.35686220  0.54444579  0.63179465    -0.01200
Br1022     Br  0.38472833  0.60160717  0.67949943    -0.01200
C1023       C  0.39805714  0.64109417  0.40766869    -0.02300
C1024       C  0.40149125  0.66648631  0.43419500     0.07400
C1025       C  0.40815450  0.69025306  0.40407194    -0.02400
C1026       C  0.40636930  0.68989893  0.34964260    -0.02400
C1027       C  0.40261440  0.66502296  0.32323657     0.07500
C1028       C  0.39994878  0.64033697  0.35320270    -0.02600
Br1029     Br  0.40269885  0.60450893  0.32144669    -0.01200
Br1030     Br  0.39549704  0.60561844  0.44457983    -0.01300
Br1031     Br  0.40679071  0.72456397  0.31310475    -0.01200
Br1032     Br  0.42189513  0.72344484  0.43396173    -0.01200
C1033       C  0.47520242  0.64718247  0.52272914    -0.02300
C1034       C  0.46022643  0.65296662  0.56805196     0.07400
C1035       C  0.47501530  0.65558220  0.61486380    -0.02400
C1036       C  0.50425061  0.65425740  0.61502923    -0.02400
C1037       C  0.51905736  0.65010434  0.56827790     0.07500
C1038       C  0.50397075  0.64646384  0.52246810    -0.02600
Br1039     Br  0.52189656  0.64013027  0.45740922    -0.01200
Br1040     Br  0.45720391  0.63744383  0.46030702    -0.01300
Br1041     Br  0.52377330  0.66024940  0.67871440    -0.01200
Br1042     Br  0.45531026  0.66125117  0.67867232    -0.01200
C1043       C  0.41747604  0.87324804  0.40278551    -0.02300
C1044       C  0.42014098  0.84782024  0.43028386     0.07400
C1045       C  0.42659494  0.82430485  0.40090670    -0.02400
C1046       C  0.42353086  0.82500688  0.34639974    -0.02400
C1047       C  0.41529159  0.84952241  0.31964671     0.07500
C1048       C  0.41269075  0.87399477  0.34905284    -0.02600
Br1049     Br  0.40161446  0.90940996  0.31939538    -0.01200
Br1050     Br  0.42366416  0.90776475  0.43745489    -0.01300
Br1051     Br  0.42774116  0.79070654  0.31125513    -0.01200
Br1052     Br  0.44255774  0.79155370  0.43179217    -0.01200
C1053       C  0.48107845  0.82471908  0.59014724    -0.02300
C1054       C  0.46688315  0.84946406  0.57726083     0.07400
C1055       C  0.48247982  0.87331116  0.56481820    -0.02400
C1056       C  0.51141943  0.87171280  0.56182834    -0.02400
C1057       C  0.52522416  0.84640956  0.57224317     0.07500
C1058       C  0.50980805  0.82313534  0.58716641    -0.02600
Br1059     Br  0.52756802  0.78844568  0.60383783    -0.01200
Br1060     Br  0.46196862  0.79225262  0.61338298    -0.01300
Br1061     Br  0.53158128  0.90383727  0.53774778    -0.01200
Br1062     Br  0.46499111  0.90821325  0.54848789    -0.01200
C1063       C  0.38292177  0.77024378  0.52535637    -0.02300
C1064       C  0.39398966  0.78505697  0.56671869     0.07400
C1065       C  0.39868008  0.77100751  0.61437027    -0.02400
C1066       C  0.40002294  0.74189490  0.61583731    -0.02400
C1067       C  0.39273277  0.72692246  0.57167143     0.07500
C1068       C  0.38041573  0.74136952  0.52967561    -0.02600
Br1069     Br  0.35670606  0.72243591  0.48247239    -0.01200
Br1070     Br  0.36908593  0.78950126  0.46467686    -0.01300
Br1071     Br  0.41104304  0.72276188  0.67844884    -0.01200
Br1072     Br  0.40148932  0.79140143  0.67773187    -0.01200
C1073       C  0.46828181  0.15868364  0.85650029    -0.02300
C1074       C  0.45187604  0.13921245  0.83114988     0.07400
C1075       C  0.46467491  0.11551850  0.81172003    -0.02400
C1076       C  0.49361988  0.11419772  0.80785626    -0.02400
C1077       C  0.50993733  0.13644003  0.82459622     0.07500
C1078       C  0.49711444  0.15773243  0.85211053    -0.02600
Br1079     Br  0.51897961  0.18543888  0.88451671    -0.01200
Br1080     Br  0.45143768  0.18503909  0.90149796    -0.01300
Br1081     Br  0.51014838  0.08252436  0.77671710    -0.01200
Br1082     Br  0.44256496  0.08455445  0.79270976    -0.01200
C1083       C  0.65289681  0.35507686  0.74828335    -0.02300
C1084       C  0.63465902  0.35587005  0.79178864     0.07400
C1085       C  0.64387936  0.37026973  0.83599772    -0.02400
C1086       C  0.66651036  0.38842729  0.83197213    -0.02400
C1087       C  0.68140364  0.39096764  0.78524386     0.07500
C1088       C  0.67509054  0.37350501  0.74408540    -0.02600
Br1089     Br  0.69586234  0.37592462  0.67999313    -0.01200
Br1090     Br  0.64996723  0.32728117  0.69553857    -0.01300
Br1091     Br  0.67838903  0.40866134  0.89153491    -0.01200
Br1092     Br  0.63040899  0.36107984  0.90463625    -0.01200
C1093       C  0.57899030  0.22073265  0.75053919    -0.02300
C1094       C  0.57997190  0.20460516  0.79729534     0.07400
C1095       C  0.58658240  0.21869448  0.84367187    -0.02400
C1096       C  0.58947815  0.24790195  0.84330590    -0.02400
C1097       C  0.58739672  0.26326137  0.79646237     0.07500
C1098       C  0.58583764  0.24886659  0.75022012    -0.02600
Br1099     Br  0.59891046  0.26637861  0.68709256    -0.01200
Br1100     Br  0.56697161  0.20703665  0.68543655    -0.01300
Br1101     Br  0.59848363  0.26676338  0.90611019    -0.01200
Br1102     Br  0.59043281  0.19885523  0.90888366    -0.01200
C1103       C  0.37080606  0.40581200  0.78481691    -0.02300
C1104       C  0.37131494  0.38017433  0.81241291     0.07400
C1105       C  0.34685551  0.37197497  0.83772181    -0.02400
C1106       C  0.32142300  0.38332214  0.82196318    -0.02400
C1107       C  0.32064597  0.40583935  0.78641294     0.07500
C1108       C  0.34560283  0.41789908  0.77000797    -0.02600
Br1109     Br  0.34567913  0.44885803  0.72148784    -0.01200
Br1110     Br  0.40450038  0.42362952  0.76368943    -0.01300
Br1111     Br  0.28795062  0.36781175  0.84969380    -0.01200
Br1112     Br  0.34871233  0.35173549  0.90258847    -0.01200
C1113       C  0.42563271  0.26275669  0.77405267    -0.02300
C1114       C  0.41078238  0.28009398  0.80821927     0.07400
C1115       C  0.39911456  0.26734733  0.85354144    -0.02400
C1116       C  0.39844291  0.23821657  0.85865968    -0.02400
C1117       C  0.41116141  0.22180304  0.82073522     0.07500
C1118       C  0.42963779  0.23510900  0.78675745    -0.02600
Br1119     Br  0.46684048  0.22208265  0.77651683    -0.01200
Br1120     Br  0.43889058  0.27243097  0.70561924    -0.01300
Br1121     Br  0.38579789  0.22127338  0.92291336    -0.01200
Br1122     Br  0.38615513  0.28849166  0.91146937    -0.01200
C1123       C  0.48441097  0.32589243  0.85572615    -0.02300
C1124       C  0.47291786  0.34944341  0.83088045     0.07400
C1125       C  0.49047967  0.37169371  0.81838930    -0.02400
C1126       C  0.51924501  0.36892073  0.82508648    -0.02400
C1127       C  0.53085970  0.34289399  0.83884085     0.07500
C1128       C  0.51309527  0.32224641  0.85808572    -0.02600
Br1129     Br  0.52811667  0.28859449  0.88749976    -0.01200
Br1130     Br  0.46110953  0.29880657  0.88835734    -0.01300
Br1131     Br  0.54179021  0.40128501  0.81787923    -0.01200
Br1132     Br  0.47569806  0.40540889  0.78898664    -0.01200
C1133       C  0.34692198  0.39221974  0.46295780    -0.02300
C1134       C  0.37195374  0.39181825  0.43386725     0.07400
C1135       C  0.37847164  0.41584199  0.40387220    -0.02400
C1136       C  0.36412223  0.44085369  0.41222038    -0.02400
C1137       C  0.34164372  0.44142260  0.44657843     0.07500
C1138       C  0.33244606  0.41684693  0.47009893    -0.02600
Br1139     Br  0.30078557  0.41707905  0.51614612    -0.01200
Br1140     Br  0.33155031  0.35965779  0.49590703    -0.01300
Br1141     Br  0.37421226  0.47411639  0.37471369    -0.01200
Br1142     Br  0.40164961  0.41406215  0.34346776    -0.01200
C1143       C  0.39662995  0.31786191  0.59698533    -0.02300
C1144       C  0.41602510  0.33056337  0.56407020     0.07400
C1145       C  0.43848252  0.34466131  0.58585190    -0.02400
C1146       C  0.44162627  0.34553420  0.63999788    -0.02400
C1147       C  0.42146683  0.33408543  0.67269747     0.07500
C1148       C  0.39906918  0.31981005  0.65100080    -0.02600
Br1149     Br  0.37047328  0.30425554  0.69457953    -0.01200
Br1150     Br  0.36424309  0.30169724  0.56791842    -0.01300
Br1151     Br  0.47184031  0.36521961  0.66965135    -0.01200
Br1152     Br  0.46246346  0.36689874  0.54276307    -0.01200
C1153       C  0.64426480  0.37795534  0.46653569    -0.02300
C1154       C  0.61680087  0.37942283  0.44651981     0.07400
C1155       C  0.60582100  0.40659809  0.43659466    -0.02400
C1156       C  0.62261943  0.43008817  0.43863044    -0.02400
C1157       C  0.64915160  0.42828894  0.45936016     0.07500
C1158       C  0.66023782  0.40208126  0.47189297    -0.02600
Br1159     Br  0.69676944  0.39925748  0.50129454    -0.01200
Br1160     Br  0.65956192  0.34448517  0.49734946    -0.01300
Br1161     Br  0.60893194  0.46541061  0.41295680    -0.01200
Br1162     Br  0.56685701  0.41492862  0.43323644    -0.01200
C1163       C  0.55161041  0.35600262  0.65273768    -0.02300
C1164       C  0.55342644  0.33064351  0.68037426     0.07400
C1165       C  0.54614677  0.30679037  0.65352481    -0.02400
C1166       C  0.54946200  0.30638539  0.59916891    -0.02400
C1167       C  0.55444355  0.33150020  0.57133734     0.07500
C1168       C  0.54991906  0.35622963  0.59840911    -0.02600
Br1169     Br  0.54091949  0.39015747  0.56156875    -0.01200
Br1170     Br  0.55161925  0.39044082  0.68837590    -0.01300
Br1171     Br  0.54825732  0.27088581  0.56768950    -0.01200
Br1172     Br  0.52817827  0.27637309  0.68864883    -0.01200
C1173       C  0.50919155  0.35278767  0.37692639    -0.02300
C1174       C  0.52377199  0.33199607  0.40511534     0.07400
C1175       C  0.50780664  0.31060284  0.42549928    -0.02400
C1176       C  0.48174390  0.31627192  0.44397067    -0.02400
C1177       C  0.46614617  0.33786710  0.41970273     0.07500
C1178       C  0.47999091  0.35340040  0.37990017    -0.02600
Br1179     Br  0.46013909  0.37137997  0.32403223    -0.01200
Br1180     Br  0.52710401  0.37674775  0.32705175    -0.01300
Br1181     Br  0.47453487  0.29719393  0.50893710    -0.01200
Br1182     Br  0.51713246  0.27287958  0.41219414    -0.01200
C1183       C  0.40750384  0.14998419  0.59189073    -0.02300
C1184       C  0.39559651  0.17428734  0.57015082     0.07400
C1185       C  0.39006715  0.19673230  0.60213173    -0.02400
C1186       C  0.39335500  0.19398068  0.65612896    -0.02400
C1187       C  0.40378819  0.16916458  0.67818350     0.07500
C1188       C  0.41148372  0.14754827  0.64560308    -0.02600
Br1189     Br  0.42559677  0.11359949  0.67474988    -0.01200
Br1190     Br  0.41994513  0.12028381  0.54850152    -0.01300
Br1191     Br  0.38024353  0.22315680  0.69928242    -0.01200
Br1192     Br  0.37728110  0.23093374  0.57213111    -0.01200
C1193       C  0.36084720  0.27547348  0.42814601    -0.02300
C1194       C  0.38506257  0.28828089  0.40990309     0.07400
C1195       C  0.40498006  0.27184390  0.38524551    -0.02400
C1196       C  0.40305528  0.24288522  0.38743572    -0.02400
C1197       C  0.38136350  0.23005420  0.41477908     0.07500
C1198       C  0.35955583  0.24651691  0.43291094    -0.02600
Br1199     Br  0.32901250  0.23007159  0.46910333    -0.01200
Br1200     Br  0.32889758  0.29676266  0.44509393    -0.01300
Br1201     Br  0.43048866  0.22102851  0.35352472    -0.01200
Br1202     Br  0.43452229  0.28902905  0.34695324    -0.01200
C1203       C  0.54337616  0.14359899  0.59057869    -0.02300
C1204       C  0.56875861  0.14717713  0.56516933     0.07400
C1205       C  0.59328226  0.14627587  0.59391397    -0.02400
C1206       C  0.59211022  0.14664730  0.64798925    -0.02400
C1207       C  0.56654129  0.14346105  0.67401037     0.07500
C1208       C  0.54220404  0.14181349  0.64498890    -0.02600
Br1209     Br  0.50734783  0.13635849  0.67890782    -0.01200
Br1210     Br  0.51098946  0.13615586  0.55096225    -0.01300
Br1211     Br  0.62564209  0.15462226  0.68511627    -0.01200
Br1212     Br  0.62877984  0.14241627  0.56029016    -0.01200
C1213       C  0.49657769  0.18716858  0.46966827    -0.02300
C1214       C  0.51075681  0.17393915  0.42930997     0.07400
C1215       C  0.49454276  0.16513258  0.38739854    -0.02400
C1216       C  0.46575294  0.16197893  0.39311156    -0.02400
C1217       C  0.45241148  0.16908550  0.44030113     0.07500
C1218       C  0.46874380  0.18180918  0.47860649    -0.02600
Br1219     Br  0.45642796  0.18999052  0.54769228    -0.01200
Br1220     Br  0.51061583  0.21943118  0.50282730    -0.01300
Br1221     Br  0.44543637  0.14942273  0.33394247    -0.01200
Br1222     Br  0.51020565  0.16535541  0.31842553    -0.01200
C1223       C  0.58818163  0.26118031  0.40118491    -0.02300
C1224       C  0.59608349  0.27437729  0.44685257     0.07400
C1225       C  0.60516222  0.25846780  0.48945026    -0.02400
C1226       C  0.60288649  0.22951398  0.48913777    -0.02400
C1227       C  0.59323618  0.21590684  0.44466761     0.07500
C1228       C  0.58647276  0.23208286  0.40014599    -0.02600
Br1229     Br  0.57187277  0.21489977  0.33948123    -0.01200
Br1230     Br  0.57940843  0.28328214  0.34037241    -0.01300
Br1231     Br  0.61124998  0.20949932  0.55174490    -0.01200
Br1232     Br  0.62036472  0.27678603  0.54865812    -0.01200
C1233       C  0.84311116  0.92025243  0.30666565    -0.02300
C1234       C  0.81704286  0.90771470  0.30471404     0.07400
C1235       C  0.81299622  0.88293175  0.33352242    -0.02400
C1236       C  0.83578591  0.86862894  0.35516071    -0.02400
C1237       C  0.86277620  0.87773503  0.34391100     0.07500
C1238       C  0.86527973  0.90600231  0.32995546    -0.02600
Br1239     Br  0.89903777  0.92506218  0.34026343    -0.01200
Br1240     Br  0.84987924  0.95561018  0.27317182    -0.01300
Br1241     Br  0.82972420  0.84209065  0.41069069    -0.01200
Br1242     Br  0.77633278  0.86955246  0.34653462    -0.01200
C1243       C  0.64833629  0.87326467  0.12837481    -0.02300
C1244       C  0.62475065  0.88183469  0.15607325     0.07400
C1245       C  0.62561184  0.90803074  0.17962371    -0.02400
C1246       C  0.65097588  0.91965992  0.19175202    -0.02400
C1247       C  0.67538843  0.90816510  0.17207243     0.07500
C1248       C  0.67389210  0.88585489  0.13787453    -0.02600
Br1249     Br  0.70661073  0.87264946  0.10399784    -0.01200
Br1250     Br  0.64480054  0.84969663  0.06939673    -0.01300
Br1251     Br  0.65215347  0.94846651  0.24261990    -0.01200
Br1252     Br  0.59246996  0.92671651  0.20139301    -0.01200
C1253       C  0.63771590  0.08663969  0.37626332    -0.02300
C1254       C  0.62893013  0.06339124  0.40583702     0.07400
C1255       C  0.60081341  0.06167900  0.41925471    -0.02400
C1256       C  0.58338192  0.08472058  0.41123361    -0.02400
C1257       C  0.59462378  0.11074385  0.39566238     0.07500
C1258       C  0.62038621  0.11007563  0.37019815    -0.02600
Br1259     Br  0.62969703  0.13795597  0.31897839    -0.01200
Br1260     Br  0.67291383  0.08583748  0.34175817    -0.01300
Br1261     Br  0.54504565  0.08125120  0.43046987    -0.01200
Br1262     Br  0.58618915  0.02932022  0.45449603    -0.01200
C1263       C  0.63030314  0.92945494  0.57838918    -0.02300
C1264       C  0.65254384  0.92681076  0.54359687     0.07400
C1265       C  0.66488725  0.90060233  0.53829614    -0.02400
C1266       C  0.65220391  0.87699784  0.56020408    -0.02400
C1267       C  0.62587647  0.87915787  0.58406894     0.07500
C1268       C  0.61814163  0.90570962  0.60101846    -0.02600
Br1269     Br  0.59779525  0.90963744  0.66466512    -0.01200
Br1270     Br  0.61764180  0.96559871  0.59796282    -0.01300
Br1271     Br  0.67079843  0.84192102  0.55437963    -0.01200
Br1272     Br  0.69786779  0.89625415  0.49724249    -0.01200
C1273       C  0.81832878  0.10628329  0.65949590    -0.02300
C1274       C  0.80013869  0.10399612  0.70172531     0.07400
C1275       C  0.80359465  0.12105449  0.74450887    -0.02400
C1276       C  0.82581398  0.13942205  0.74633003    -0.02400
C1277       C  0.84662290  0.13935583  0.70711845     0.07500
C1278       C  0.84047156  0.12499608  0.66084795    -0.02600
Br1279     Br  0.85850371  0.13413548  0.59590569    -0.01200
Br1280     Br  0.81226836  0.08432437  0.59902744    -0.01300
Br1281     Br  0.82324636  0.16718006  0.79843333    -0.01200
Br1282     Br  0.77823152  0.11835997  0.80252979    -0.01200
C1283       C  0.65967822  0.09760115  0.83595611    -0.02300
C1284       C  0.65940330  0.07585820  0.80025735     0.07400
C1285       C  0.63411425  0.06349559  0.78851571    -0.02400
C1286       C  0.60948726  0.07559197  0.80579622    -0.02400
C1287       C  0.60987565  0.10202660  0.82865475     0.07500
C1288       C  0.63471724  0.10978663  0.85201360    -0.02600
Br1289     Br  0.63366961  0.13193332  0.91315439    -0.01200
Br1290     Br  0.69392950  0.11019177  0.86383887    -0.01300
Br1291     Br  0.57540050  0.05749729  0.79162365    -0.01200
Br1292     Br  0.63253660  0.03230072  0.74297129    -0.01200
C1293       C  0.85151123  0.07577135  0.06287655    -0.02300
C1294       C  0.83578214  0.07510206  0.01705892     0.07400
C1295       C  0.82952643  0.10015670  0.99097405    -0.02400
C1296       C  0.84077899  0.12498180  0.00814996    -0.02400
C1297       C  0.86178491  0.12463574  0.04602433     0.07500
C1298       C  0.86400002  0.10058640  0.07793980    -0.02600
Br1299     Br  0.88041836  0.10260975  0.14581203    -0.01200
Br1300     Br  0.85499863  0.04303732  0.10618826    -0.01300
Br1301     Br  0.82489610  0.15936342  0.98399125    -0.01200
Br1302     Br  0.80763490  0.10067613  0.92876824    -0.01200
C1303       C  0.85704658  0.91709434  0.87813360    -0.02300
C1304       C  0.86358225  0.94035665  0.90788149     0.07400
C1305       C  0.89124929  0.94378679  0.92313805    -0.02400
C1306       C  0.91009520  0.92174191  0.91837165    -0.02400
C1307       C  0.90084732  0.89555411  0.90208582     0.07500
C1308       C  0.87624450  0.89531795  0.87313173    -0.02600
Br1309     Br  0.87164197  0.86929342  0.81826092    -0.01200
Br1310     Br  0.82239921  0.91545302  0.84227041    -0.01300
Br1311     Br  0.94748608  0.92653334  0.94137809    -0.01200
Br1312     Br  0.90335751  0.97715993  0.95570439    -0.01200
C1313       C  0.34739072  0.07836880  0.41175068    -0.02300
C1314       C  0.32372717  0.07871988  0.44348486     0.07400
C1315       C  0.31194369  0.10437936  0.45604276    -0.02400
C1316       C  0.32596048  0.12893906  0.44363976    -0.02400
C1317       C  0.35307005  0.12809077  0.42290325     0.07500
C1318       C  0.36136009  0.10316814  0.39962190    -0.02600
Br1319     Br  0.38647641  0.10363876  0.34182880    -0.01200
Br1320     Br  0.35993748  0.04411779  0.38274675    -0.01300
Br1321     Br  0.30798764  0.16339698  0.45828447    -0.01200
Br1322     Br  0.27803581  0.10639589  0.49533868    -0.01200
C1323       C  0.33999864  0.88353883  0.54862657    -0.02300
C1324       C  0.36493634  0.88490222  0.57734108     0.07400
C1325       C  0.36880301  0.90838983  0.60840374    -0.02400
C1326       C  0.35344198  0.93269854  0.59808906    -0.02400
C1327       C  0.33170159  0.93244798  0.56214753     0.07500
C1328       C  0.32386194  0.90730818  0.54044129    -0.02600
Br1329     Br  0.29271859  0.90587814  0.49399677    -0.01200
Br1330     Br  0.32831340  0.84996371  0.51584460    -0.01300
Br1331     Br  0.36179555  0.96610257  0.63410311    -0.01200
Br1332     Br  0.38883365  0.90581719  0.67275025    -0.01200
C1333       C  0.32135190  0.15123707  0.79143831    -0.02300
C1334       C  0.34361451  0.14054690  0.82186738     0.07400
C1335       C  0.33795017  0.11756246  0.85470186    -0.02400
C1336       C  0.31459205  0.10112816  0.84550679    -0.02400
C1337       C  0.29565909  0.10876047  0.80621932     0.07500
C1338       C  0.29819133  0.13487887  0.78183902    -0.02600
Br1339     Br  0.27165737  0.14737344  0.73059088    -0.01200
Br1340     Br  0.32271260  0.18757800  0.75907961    -0.01300
Br1341     Br  0.30795240  0.06878156  0.88837046    -0.01200
Br1342     Br  0.35756071  0.11234871  0.91896123    -0.01200
C1343       C  0.16014226  0.11365018  0.64618836    -0.02300
C1344       C  0.15873546  0.09038625  0.68001119     0.07400
C1345       C  0.13284491  0.07823644  0.68912439    -0.02400
C1346       C  0.10888022  0.09136248  0.67056737    -0.02400
C1347       C  0.11004411  0.11892871  0.65068731     0.07500
C1348       C  0.13581309  0.12774644  0.63086521    -0.02600
Br1349     Br  0.13777459  0.15391071  0.57373851    -0.01200
Br1350     Br  0.19515719  0.12490060  0.61782868    -0.01300
Br1351     Br  0.07466337  0.07151965  0.67571683    -0.01200
Br1352     Br  0.12908918  0.04517687  0.73181758    -0.01200
C1353       C  0.31139400  0.88398415  0.17001608    -0.02300
C1354       C  0.31217594  0.90853764  0.19857806     0.07400
C1355       C  0.33739018  0.92263573  0.20233282    -0.02400
C1356       C  0.36179705  0.91039462  0.18411110    -0.02400
C1357       C  0.36166314  0.88291848  0.16566595     0.07500
C1358       C  0.33591887  0.87233607  0.15057266    -0.02600
Br1359     Br  0.33336608  0.84864618  0.09163934    -0.01200
Br1360     Br  0.27674111  0.86678993  0.15490585    -0.01300
Br1361     Br  0.39525239  0.93154561  0.18664017    -0.01200
Br1362     Br  0.33957485  0.95760477  0.23709470    -0.01200
C1363       C  0.17157053  0.87780648  0.35264450    -0.02300
C1364       C  0.16749118  0.90387633  0.32818116     0.07400
C1365       C  0.14137407  0.91664382  0.33269105    -0.02400
C1366       C  0.11944012  0.90197682  0.35574808    -0.02400
C1367       C  0.12204632  0.87324788  0.36549085     0.07500
C1368       C  0.14905165  0.86349994  0.37429429    -0.02600
Br1369     Br  0.15565059  0.83572841  0.42736948    -0.01200
Br1370     Br  0.20781072  0.86172551  0.35886716    -0.01300
Br1371     Br  0.08582264  0.92096201  0.37154384    -0.01200
Br1372     Br  0.13390884  0.95255248  0.30187721    -0.01200
C1373       C  0.14843116  0.11528731  0.06332923    -0.02300
C1374       C  0.12190816  0.11388177  0.08570242     0.07400
C1375       C  0.11566221  0.08947101  0.11402619    -0.02400
C1376       C  0.12932850  0.06466105  0.10203905    -0.02400
C1377       C  0.15155001  0.06514606  0.06680146     0.07500
C1378       C  0.16280903  0.09091566  0.05199021    -0.02600
Br1379     Br  0.19650468  0.09343191  0.01222279    -0.01200
Br1380     Br  0.16510317  0.15010573  0.04716829    -0.01300
Br1381     Br  0.11853563  0.03061130  0.13581071    -0.01200
Br1382     Br  0.09414487  0.09158958  0.17677513    -0.01200
C1383       C  0.17714856  0.89034559  0.95074918    -0.02300
C1384       C  0.16264795  0.91480293  0.93751612     0.07400
C1385       C  0.14018864  0.91307868  0.90331209    -0.02400
C1386       C  0.12892237  0.88708112  0.89212291    -0.02400
C1387       C  0.13880122  0.86322327  0.91850884     0.07500
C1388       C  0.16589713  0.86455571  0.93871472    -0.02600
Br1389     Br  0.18579073  0.83143866  0.95852520    -0.01200
Br1390     Br  0.21074172  0.89142094  0.99050677    -0.01300
Br1391     Br  0.10503888  0.88365384  0.83330331    -0.01200
Br1392     Br  0.12618825  0.94600748  0.86933700    -0.01200
loop_ 
_geom_bond_atom_site_label_1 
_geom_bond_atom_site_label_2 
_geom_bond_distance 
_geom_bond_site_symmetry_2 
_ccdc_geom_bond_type 
O1            C4   1.273       .  A
O1           Cd6   2.529   1_546  S
C2           O11   1.266       .  A
C2            O7   1.273       .  A
C2           C15   1.481       .  S
O3            C9   1.274       .  A
O3           Cd6   2.488   1_545  S
C4           O12   1.266       .  A
C4           C30   1.482       .  S
C5           O10   1.274       .  A
C5            O8   1.266       .  A
C5         C1384   1.487       .  S
Cd6          O13   2.402   1_565  S
Cd6          O12   2.453   1_564  S
Cd6          O11   2.456       .  S
Cd6           O7   2.521       .  S
Cd6          O10   2.489   1_554  S
Cd6           O8   2.422   1_554  S
C9           O13   1.265       .  A
C9         C1377   1.482       .  S
O14          C17   1.272       .  A
O14         Cd19   2.551       .  S
C15          O24   1.264       .  A
C15          O20   1.270       .  A
O16          C22   1.271       .  A
O16         Cd19   2.499       .  S
C17          O25   1.265       .  A
C17          C41   1.487       .  S
C18          O23   1.270       .  A
C18          O21   1.266       .  A
C18        C1364   1.489       .  S
Cd19         O26   2.427       .  S
Cd19         O25   2.469       .  S
Cd19         O24   2.467       .  S
Cd19         O20   2.532       .  S
Cd19         O23   2.466       .  S
Cd19         O21   2.445       .  S
C22          O26   1.264       .  A
C22        C1354   1.490       .  S
O27          C30   1.268       .  A
O27         Cd32   2.550       .  S
C28          O37   1.264       .  A
C28          O33   1.267       .  A
C28          C43   1.482       .  S
O29          C35   1.269       .  A
O29         Cd32   2.507       .  S
C30          O38   1.262       .  A
C31          O36   1.269       .  A
C31          O34   1.267       .  A
C31        C1337   1.490       .  S
Cd32         O39   2.446       .  S
Cd32         O38   2.475       .  S
Cd32         O37   2.466       .  S
Cd32         O33   2.547       .  S
Cd32         O36   2.467       .  S
Cd32         O34   2.478       .  S
C35          O39   1.264       .  A
C35        C1344   1.493       .  S
O40          C43   1.271       .  A
O40         Cd45   2.553       .  S
C41          O50   1.263       .  A
C41          O46   1.269   1_565  A
O42          C48   1.269       .  A
O42         Cd45   2.483       .  S
C43          O51   1.262       .  A
C44          O49   1.270       .  A
C44          O47   1.266       .  A
C44        C1327   1.479       .  S
Cd45         O52   2.442       .  S
Cd45         O51   2.453       .  S
Cd45         O50   2.480   1_545  S
Cd45         O46   2.556       .  S
Cd45         O49   2.484   1_545  S
Cd45         O47   2.429   1_545  S
C48          O52   1.265       .  A
C48        C1314   1.486       .  S
O53          C56   1.264       .  A
O53         Cd58   2.519   1_554  S
C54          O63   1.270   1_545  A
C54          O59   1.261       .  A
C54          C69   1.488       .  S
O55          C61   1.265       .  A
O55         Cd58   2.455   1_545  S
C56          O64   1.268       .  A
C56          C95   1.496       .  S
C57          O62   1.265       .  A
C57          O60   1.268       .  A
C57        C1304   1.497       .  S
Cd58         O65   2.488   1_565  S
Cd58         O64   2.569   1_556  S
Cd58         O63   2.596       .  S
Cd58         O59   2.452   1_565  S
Cd58         O62   2.474       .  S
Cd58         O60   2.495       .  S
C61          O65   1.268       .  A
C61        C1294   1.484   1_556  S
O66          C69   1.273       .  A
O66         Cd71   2.587       .  S
C67          O76   1.263       .  A
C67          O72   1.270       .  A
C67          C82   1.493       .  S
O68          C74   1.268       .  A
O68         Cd71   2.485       .  S
C69          O77   1.261       .  A
C70          O75   1.269       .  A
C70          O73   1.266       .  A
C70        C1274   1.479       .  S
Cd71         O78   2.455       .  S
Cd71         O77   2.434       .  S
Cd71         O76   2.505       .  S
Cd71         O72   2.567       .  S
Cd71         O75   2.445       .  S
Cd71         O73   2.468       .  S
C74          O78   1.267       .  A
C74        C1284   1.485       .  S
O79          C82   1.265       .  A
O79         Cd84   2.499       .  S
C80          O89   1.263       .  A
C80          O85   1.270   1_565  A
C80          C93   1.493       .  S
O81          C87   1.269       .  A
O81         Cd84   2.500   1_565  S
C82          O90   1.270       .  A
C83          O88   1.267       .  A
C83          O86   1.268       .  A
C83        C1254   1.500       .  S
Cd84         O91   2.461   1_545  S
Cd84         O90   2.557       .  S
Cd84         O89   2.485   1_545  S
Cd84         O85   2.583       .  S
Cd84         O88   2.482       .  S
Cd84         O86   2.500       .  S
C87          O91   1.264       .  A
C87        C1264   1.490       .  S
O92          C95   1.270       .  A
O92         Cd97   2.564       .  S
C93         O102   1.273       .  A
C93          O98   1.264       .  A
O94         C100   1.269       .  A
O94         Cd97   2.496       .  S
C95         O103   1.265       .  A
C96         O101   1.270       .  A
C96          O99   1.266       .  A
C96        C1234   1.491       .  S
Cd97        O104   2.416       .  S
Cd97        O103   2.511       .  S
Cd97        O102   2.579       .  S
Cd97         O98   2.472       .  S
Cd97        O101   2.495       .  S
Cd97         O99   2.441       .  S
C100        O104   1.265       .  A
C100       C1247   1.477       .  S
C105        C106   1.547       .  S
C105        C111   1.526       .  S
C105        C109   1.565       .  S
C105       C1257   1.558       .  S
C106        H113   1.081       .  S
C106        C107   1.384       .  D
C107        C108   1.553       .  S
C107       C1214   1.526       .  S
C108        C112   1.532       .  S
C108        C110   1.530       .  S
C108        H114   1.086       .  S
C109        H115   1.084       .  S
C109        C110   1.376       .  D
C110       C1227   1.504       .  S
C111        H116   1.088       .  S
C111        C112   1.339       .  D
C112       C1204   1.474       .  S
C117        C118   1.543       .  S
C117        C123   1.532       .  S
C117        C121   1.565       .  S
C117       C1317   1.554       .  S
C118        H125   1.083       .  S
C118        C119   1.368       .  D
C119        C120   1.537       .  S
C119       C1197   1.491       .  S
C120        C124   1.542       .  S
C120        C122   1.537       .  S
C120        H126   1.106       .  S
C121        H127   1.078       .  S
C121        C122   1.381       .  D
C122       C1217   1.517       .  S
C123        H128   1.089       .  S
C123        C124   1.353       .  D
C124       C1184   1.484       .  S
C129        C130   1.547       .  S
C129        C135   1.531       .  S
C129        C133   1.551       .  S
C129       C1154   1.559       .  S
C130        H137   1.084       .  S
C130        C131   1.368       .  D
C131        C132   1.540       .  S
C131       C1224   1.486       .  S
C132        C136   1.534       .  S
C132        C134   1.548       .  S
C132        H138   1.088       .  S
C133        H139   1.079       .  S
C133        C134   1.374       .  D
C134       C1174   1.517       .  S
C135        H140   1.087       .  S
C135        C136   1.360       .  D
C136       C1167   1.511       .  S
C141        C142   1.558       .  S
C141        C147   1.529       .  S
C141        C145   1.544       .  S
C141       C1134   1.548       .  S
C142        H149   1.073       .  S
C142        C143   1.387       .  D
C143        C144   1.545       .  S
C143       C1177   1.519       .  S
C144        C148   1.540       .  S
C144        C146   1.535       .  S
C144        H150   1.097       .  S
C145        H151   1.086       .  S
C145        C146   1.362       .  D
C146       C1194   1.499       .  S
C147        H152   1.088       .  S
C147        C148   1.348       .  D
C148       C1144   1.480       .  S
C153        C154   1.556       .  S
C153        C159   1.530       .  S
C153        C157   1.547       .  S
C153       C1104   1.548       .  S
C154        H161   1.081       .  S
C154        C155   1.377       .  D
C155        C156   1.540       .  S
C155       C1114   1.509       .  S
C156        C160   1.542       .  S
C156        C158   1.539       .  S
C156        H162   1.103       .  S
C157        H163   1.084       .  S
C157        C158   1.372       .  D
C158       C1124   1.505       .  S
C159        H164   1.089       .  S
C159        C160   1.349       .  D
C160       C1147   1.482       .  S
C165        C166   1.558       .  S
C165        C171   1.545       .  S
C165        C169   1.533       .  S
C165       C1084   1.556       .  S
C166        H173   1.079       .  S
C166        C167   1.377       .  D
C167        C168   1.541       .  S
C167       C1127   1.507       .  S
C168        C172   1.539       .  S
C168        C170   1.555       .  S
C168        H174   1.102       .  S
C169        H175   1.087       .  S
C169        C170   1.359       .  D
C170       C1097   1.502       .  S
C171        H176   1.085       .  S
C171        C172   1.367       .  D
C172       C1164   1.505       .  S
C177        C178   1.564       .  S
C177        C183   1.530       .  S
C177        C181   1.547       .  S
C177       C1334   1.554       .  S
C178        H185   1.081       .  S
C178        C179   1.376       .  D
C179        C180   1.533       .  S
C179       C1074   1.499       .  S
C180        C184   1.532       .  S
C180        C182   1.539       .  S
C180        H186   1.090       .  S
C181        H187   1.083       .  S
C181        C182   1.379       .  D
C182       C1117   1.510       .  S
C183        H188   1.089       .  S
C183        C184   1.343       .  D
C184       C1187   1.480       .  S
C189        C190   1.562       .  S
C189        C195   1.526       .  S
C189        C193   1.538       .  S
C189       C1287   1.552       .  S
C190        H197   1.082       .  S
C190        C191   1.377       .  D
C191        C192   1.549       .  S
C191       C1094   1.527       .  S
C192        C196   1.545       .  S
C192        C194   1.555       .  S
C192        H198   1.109       .  S
C193        H199   1.085       .  S
C193        C194   1.371       .  D
C194       C1077   1.499       .  S
C195        H200   1.086       .  S
C195        C196   1.349       .  D
C196       C1207   1.482       .  S
C201        C202   1.529       .  S
C201        C207   1.540       .  S
C201        C205   1.557       .  S
C201       C1324   1.548       .  S
C202        H209   1.087       .  S
C202        C203   1.358       .  D
C203        C204   1.555       .  S
C203       C1064   1.490       .  S
C204        C208   1.546       .  S
C204        C206   1.534       .  S
C204        H210   1.091       .  S
C205        H211   1.073       .  S
C205        C206   1.374       .  D
C206       C1054   1.504       .  S
C207        H212   1.087       .  S
C207        C208   1.364       .  D
C208       C1044   1.520       .  S
C213        C214   1.560       .  S
C213        C219   1.536       .  S
C213        C217   1.533       .  S
C213       C1014   1.548       .  S
C214        H221   1.079       .  S
C214        C215   1.368       .  D
C215        C216   1.541       .  S
C215       C1034   1.512       .  S
C216        C220   1.553       .  S
C216        C218   1.559       .  S
C216        H222   1.101       .  S
C217        H223   1.087       .  S
C217        C218   1.366       .  D
C218       C1067   1.494       .  S
C219        H224   1.086       .  S
C219        C220   1.356       .  D
C220       C1024   1.515       .  S
C225        C226   1.543       .  S
C225        C231   1.538       .  S
C225        C229   1.548       .  S
C225       C1267   1.553       .  S
C226        H233   1.079       .  S
C226        C227   1.368       .  D
C227        C228   1.546       .  S
C227       C1057   1.493       .  S
C228        C232   1.536       .  S
C228        C230   1.544       .  S
C228        H234   1.106       .  S
C229        H235   1.083       .  S
C229        C230   1.367       .  D
C230       C1004   1.499       .  S
C231        H236   1.085       .  S
C231        C232   1.362       .  D
C232        C994   1.508       .  S
C237        C238   1.557       .  S
C237        C243   1.529       .  S
C237        C241   1.558       .  S
C237        C977   1.555       .  S
C238        H245   1.083       .  S
C238        C239   1.385       .  D
C239        C240   1.541       .  S
C239       C1007   1.524       .  S
C240        C244   1.552       .  S
C240        C242   1.538       .  S
C240        H246   1.092       .  S
C241        H247   1.076       .  S
C241        C242   1.368       .  D
C242       C1037   1.510       .  S
C243        H248   1.087       .  S
C243        C244   1.343       .  D
C244        C984   1.487       .  S
C249        C250   1.555       .  S
C249        C255   1.536       .  S
C249        C253   1.543       .  S
C249        C947   1.554       .  S
C250        H257   1.073       .  S
C250        C251   1.375       .  D
C251        C252   1.547       .  S
C251        C954   1.505       .  S
C252        C256   1.547       .  S
C252        C254   1.544       .  S
C252        H258   1.108       .  S
C253        H259   1.083       .  S
C253        C254   1.364       .  D
C254        C964   1.502       .  S
C255        H260   1.086       .  S
C255        C256   1.357       .  D
C256       C1027   1.508       .  S
C261        C262   1.540       .  S
C261        C267   1.536       .  S
C261        C265   1.550       .  S
C261        C924   1.546       .  S
C262        H269   1.080       .  S
C262        C263   1.369       .  D
C263        C264   1.550       .  S
C263        C967   1.508       .  S
C264        C268   1.547       .  S
C264        C266   1.539       .  S
C264        H270   1.107       .  S
C265        H271   1.082       .  S
C265        C266   1.368       .  D
C266        C934   1.493       .  S
C267        H272   1.088       .  S
C267        C268   1.353       .  D
C268        C987   1.494       .  S
C273        C274   1.547       .  S
C273        C279   1.541       .  S
C273        C277   1.543       .  S
C273       C1357   1.552       .  S
C274        H281   1.086       .  S
C274        C275   1.365       .  D
C275        C276   1.541       .  S
C275        C914   1.497       .  S
C276        C280   1.548       .  S
C276        C278   1.561       .  S
C276        H282   1.104       .  S
C277        H283   1.073       .  S
C277        C278   1.370       .  D
C278        C957   1.514       .  S
C279        H284   1.085       .  S
C279        C280   1.359       .  D
C280       C1047   1.515       .  S
C285        C286   1.534       .  S
C285        C291   1.537       .  S
C285        C289   1.534       .  S
C285       C1244   1.542       .  S
C286        H293   1.080       .  S
C286        C287   1.365       .  D
C287        C288   1.550       .  S
C287        C937   1.490       .  S
C288        C292   1.551       .  S
C288        C290   1.552       .  S
C288        H294   1.096       .  S
C289        H295   1.086       .  S
C289        C290   1.361       .  D
C290        C917   1.490       .  S
C291        H296   1.070       .  S
C291        C292   1.369       .  D
C292        C997   1.533       .  S
O297        C300   1.270       .  A
O297       Cd302   2.553       .  S
C298        O307   1.264       .  A
C298        O303   1.270       .  A
C298        C326   1.489       .  S
O299        C305   1.269       .  A
O299       Cd302   2.514       .  S
C300        O308   1.264       .  A
C300        C311   1.485       .  S
C301        O306   1.270       .  A
C301        O304   1.265       .  A
C301       C1107   1.485       .  S
Cd302       O309   2.436       .  S
Cd302       O308   2.471       .  S
Cd302       O307   2.481       .  S
Cd302       O303   2.562       .  S
Cd302       O306   2.492       .  S
Cd302       O304   2.430       .  S
C305        O309   1.265       .  A
C305        C904   1.493       .  S
O310        C313   1.265       .  A
O310       Cd315   2.468       .  S
C311        O320   1.271       .  A
C311        O316   1.262       .  A
O312        C318   1.269       .  A
O312       Cd315   2.490       .  S
C313        O321   1.269       .  A
C313        C337   1.482       .  S
C314        O319   1.269       .  A
C314        O317   1.267       .  A
C314       C1017   1.484       .  S
Cd315       O322   2.405       .  S
Cd315       O321   2.541       .  S
Cd315       O320   2.559       .  S
Cd315       O316   2.462       .  S
Cd315       O319   2.463       .  S
Cd315       O317   2.452       .  S
C318        O322   1.264       .  A
C318       C1137   1.473       .  S
O323        C326   1.262       .  A
O323       Cd328   2.485       .  S
C324        O333   1.272       .  A
C324        O329   1.260       .  A
C324        C339   1.483       .  S
O325        C331   1.268       .  A
O325       Cd328   2.434       .  S
C326        O334   1.269       .  A
C327        O332   1.267       .  A
C327        O330   1.267       .  A
C327        C894   1.489       .  S
Cd328       O335   2.456       .  S
Cd328       O334   2.570       .  S
Cd328       O333   2.570   1_556  S
Cd328       O329   2.444   1_556  S
Cd328       O332   2.473   1_556  S
Cd328       O330   2.470   1_556  S
C331        O335   1.265       .  A
C331        C887   1.480       .  S
O336        C339   1.270       .  A
O336       Cd341   2.557       .  S
C337        O346   1.263       .  A
C337        O342   1.270       .  A
O338        C344   1.270       .  A
O338       Cd341   2.500       .  S
C339        O347   1.264       .  A
C340        O345   1.270       .  A
C340        O343   1.265       .  A
C340        C874   1.485       .  S
Cd341       O348   2.460       .  S
Cd341       O347   2.455       .  S
Cd341       O346   2.464       .  S
Cd341       O342   2.546       .  S
Cd341       O345   2.498       .  S
Cd341       O343   2.455       .  S
C344        O348   1.266       .  A
C344        C944   1.495       .  S
C349        C350   1.544       .  S
C349        C355   1.537       .  S
C349        C353   1.543       .  S
C349        C834   1.549       .  S
C350        H357   1.085       .  S
C350        C351   1.370       .  D
C351        C352   1.547       .  S
C351        C864   1.499       .  S
C352        C356   1.545   1_556  S
C352        C354   1.543       .  S
C352        H358   1.109   1_556  S
C353        H359   1.075       .  S
C353        C354   1.368       .  D
C354        C854   1.490       .  S
C355        H360   1.087   1_556  S
C355        C356   1.358   1_556  D
C356        C844   1.503       .  S
C361        C362   1.549       .  S
C361        C367   1.529       .  S
C361        C365   1.559       .  S
C361       C1307   1.552       .  S
C362        H369   1.077       .  S
C362        C363   1.385       .  D
C363        C364   1.553       .  S
C363        C824   1.531       .  S
C364        C368   1.541   1_556  S
C364        C366   1.531       .  S
C364        H370   1.092   1_556  S
C365        H371   1.078       .  S
C365        C366   1.368       .  D
C366        C867   1.497       .  S
C367        H372   1.088   1_556  S
C367        C368   1.344   1_556  D
C368        C814   1.486       .  S
C373        C374   1.549       .  S
C373        C379   1.523   1_556  S
C373        C377   1.556       .  S
C373       C1387   1.548       .  S
C374        H381   1.086       .  S
C374        C375   1.370       .  D
C375        C376   1.536       .  S
C375        C804   1.505       .  S
C376        C380   1.551   1_556  S
C376        C378   1.548       .  S
C376        H382   1.094   1_556  S
C377        H383   1.073       .  S
C377        C378   1.384       .  D
C378        C827   1.529       .  S
C379        H384   1.088       .  S
C379        C380   1.343       .  D
C380        C797   1.479       .  S
C385        C386   1.538       .  S
C385        C391   1.552   1_556  S
C385        C389   1.538       .  S
C385        C884   1.553       .  S
C386        H393   1.083       .  S
C386        C387   1.370       .  D
C387        C388   1.545       .  S
C387        C857   1.508       .  S
C388        C392   1.532   1_556  S
C388        C390   1.554       .  S
C388        H394   1.102       .  S
C389        H395   1.084       .  S
C389        C390   1.360       .  D
C390        C807   1.492       .  S
C391        H396   1.085       .  S
C391        C392   1.373       .  D
C392        C784   1.503       .  S
C397        C398   1.546       .  S
C397        C403   1.530       .  S
C397        C401   1.552       .  S
C397       C1367   1.550       .  S
C398        H405   1.084       .  S
C398        C399   1.376       .  D
C399        C400   1.548       .  S
C399        C774   1.508       .  S
C400        C404   1.544       .  S
C400        C402   1.539       .  S
C400        H406   1.110       .  S
C401        H407   1.059       .  S
C401        C402   1.369       .  D
C402        C764   1.500       .  S
C403        H408   1.086       .  S
C403        C404   1.351       .  D
C404        C794   1.479       .  S
C409        C410   1.552       .  S
C409        C415   1.533       .  S
C409        C413   1.553       .  S
C409       C1237   1.558       .  S
C410        H417   1.078       .  S
C410        C411   1.363       .  D
C411        C412   1.542       .  S
C411        C754   1.508       .  S
C412        C416   1.546       .  S
C412        C414   1.546       .  S
C412        H418   1.108       .  S
C413        H419   1.083       .  S
C413        C414   1.380       .  D
C414        C777   1.507       .  S
C415        H420   1.086       .  S
C415        C416   1.357       .  D
C416        C817   1.499       .  S
C421        C422   1.535       .  S
C421        C427   1.548       .  S
C421        C425   1.548       .  S
C421        C877   1.552       .  S
C422        H429   1.085       .  S
C422        C423   1.354       .  D
C423        C424   1.546       .  S
C423        C767   1.476       .  S
C424        C428   1.531       .  S
C424        C426   1.541       .  S
C424        H430   1.104       .  S
C425        H431   1.082       .  S
C425        C426   1.381       .  D
C426        C744   1.509       .  S
C427        H432   1.085       .  S
C427        C428   1.365       .  D
C428        C787   1.495       .  S
C433        C434   1.538       .  S
C433        C439   1.530       .  S
C433        C437   1.564       .  S
C433        C734   1.551       .  S
C434        H441   1.086       .  S
C434        C435   1.372       .  D
C435        C436   1.550       .  S
C435        C747   1.499       .  S
C436        C440   1.550       .  S
C436        C438   1.543       .  S
C436        H442   1.109       .  S
C437        H443   1.080       .  S
C437        C438   1.376       .  D
C438        C757   1.522       .  S
C439        H444   1.088       .  S
C439        C440   1.350       .  D
C440        C847   1.489       .  S
C445        C446   1.530       .  S
C445        C451   1.546   1_554  S
C445        C449   1.547       .  S
C445       C1297   1.551       .  S
C446        H453   1.085       .  S
C446        C447   1.354       .  D
C447        C448   1.550       .  S
C447        C717   1.475       .  S
C448        C452   1.524   1_554  S
C448        C450   1.549       .  S
C448        H454   1.106       .  S
C449        H455   1.081       .  S
C449        C450   1.383       .  D
C450        C727   1.519       .  S
C451        H456   1.086       .  S
C451        C452   1.362       .  D
C452        C707   1.486       .  S
C457        C458   1.536       .  S
C457        C463   1.542       .  S
C457        C461   1.552       .  S
C457       C1374   1.549       .  S
C458        H465   1.085       .  S
C458        C459   1.374       .  D
C459        C460   1.554       .  S
C459        C694   1.501       .  S
C460        C464   1.548   1_554  S
C460        C462   1.531       .  S
C460        H466   1.105       .  S
C461        H467   1.079       .  S
C461        C462   1.358       .  D
C462        C714   1.486       .  S
C463        H468   1.085   1_554  S
C463        C464   1.366   1_554  D
C464        C684   1.514       .  S
C469        C470   1.546       .  S
C469        C475   1.525       .  S
C469        C473   1.562       .  S
C469        C654   1.561       .  S
C470        H477   1.085       .  S
C470        C471   1.377       .  D
C471        C472   1.551       .  S
C471        C724   1.509       .  S
C472        C476   1.553   1_554  S
C472        C474   1.547       .  S
C472        H478   1.109   1_554  S
C473        H479   1.077       .  S
C473        C474   1.374       .  D
C474        C674   1.521       .  S
C475        H480   1.089   1_554  S
C475        C476   1.350   1_554  D
C476        C664   1.495       .  S
C481        C482   1.562       .  S
C481        C487   1.532       .  S
C481        C485   1.542       .  S
C481        C897   1.553       .  S
C482        H489   1.078       .  S
C482        C483   1.374       .  D
C483        C484   1.546       .  S
C483        C677   1.522       .  S
C484        C488   1.552   1_554  S
C484        C486   1.547       .  S
C484        H490   1.109   1_554  S
C485        H491   1.085       .  S
C485        C486   1.372       .  D
C486        C697   1.497       .  S
C487        H492   1.086   1_554  S
C487        C488   1.354   1_554  D
C488        C644   1.496       .  S
C493        C494   1.541       .  S
C493        C499   1.538       .  S
C493        C497   1.542       .  S
C493       C1347   1.554       .  S
C494        H501   1.084       .  S
C494        C495   1.362       .  D
C495        C496   1.546       .  S
C495        C627   1.494       .  S
C496        C500   1.547       .  S
C496        C498   1.560       .  S
C496        H502   1.104       .  S
C497        H503   1.062       .  S
C497        C498   1.376       .  D
C498        C637   1.509       .  S
C499        H504   1.086       .  S
C499        C500   1.360       .  D
C500        C687   1.517       .  S
C505        C506   1.544       .  S
C505        C511   1.541       .  S
C505        C509   1.547       .  S
C505       C1277   1.559       .  S
C506        H513   1.082       .  S
C506        C507   1.381       .  D
C507        C508   1.537       .  S
C507        C614   1.518       .  S
C508        C512   1.537       .  S
C508        C510   1.528       .  S
C508        H514   1.098       .  S
C509        H515   1.086       .  S
C509        C510   1.362       .  D
C510        C624   1.485       .  S
C511        H516   1.082       .  S
C511        C512   1.367       .  D
C512        C704   1.486       .  S
C517        C518   1.542       .  S
C517        C523   1.541       .  S
C517        C521   1.549       .  S
C517        C594   1.547       .  S
C518        H525   1.083       .  S
C518        C519   1.364       .  D
C519        C520   1.544       .  S
C519        C604   1.499       .  S
C520        C524   1.530       .  S
C520        C522   1.553       .  S
C520        H526   1.105       .  S
C521        H527   1.081       .  S
C521        C522   1.374       .  D
C522        C617   1.511       .  S
C523        H528   1.087       .  S
C523        C524   1.352       .  D
C524        C667   1.493       .  S
C529        C530   1.555       .  S
C529        C535   1.534       .  S
C529        C533   1.544       .  S
C529        C907   1.557       .  S
C530        H537   1.069       .  S
C530        C531   1.376       .  D
C531        C532   1.551       .  S
C531        C634   1.504       .  S
C532        C536   1.547       .  S
C532        C534   1.548       .  S
C532        H538   1.110       .  S
C533        H539   1.083       .  S
C533        C534   1.365       .  D
C534        C607   1.508       .  S
C535        H540   1.086       .  S
C535        C536   1.353       .  D
C536        C647   1.503       .  S
O541        C544   1.268       .  A
O541       Cd546   2.550       .  S
C542        O551   1.262       .  A
C542        O547   1.269       .  A
C542        C570   1.487       .  S
O543        C549   1.268       .  A
O543       Cd546   2.466       .  S
C544        O552   1.261       .  A
C544        C555   1.478       .  S
C545        O550   1.268       .  A
C545        O548   1.265       .  A
C545        C597   1.481       .  S
Cd546       O553   2.484       .  S
Cd546       O552   2.455       .  S
Cd546       O551   2.468       .  S
Cd546       O547   2.574       .  S
Cd546       O550   2.473       .  S
Cd546       O548   2.444       .  S
C549        O553   1.267       .  A
C549       C1087   1.486       .  S
O554        C557   1.269       .  A
O554       Cd559   2.529       .  S
C555        O564   1.263       .  A
C555        O560   1.271       .  A
O556        C562   1.271       .  A
O556       Cd559   2.501       .  S
C557        O565   1.265       .  A
C557        C581   1.481       .  S
C558        O563   1.271       .  A
C558        O561   1.265       .  A
C558       C1157   1.492       .  S
Cd559       O566   2.466       .  S
Cd559       O565   2.474       .  S
Cd559       O564   2.439       .  S
Cd559       O560   2.540       .  S
Cd559       O563   2.465       .  S
Cd559       O561   2.475       .  S
C562        O566   1.265       .  A
C562        C974   1.499       .  S
O567        C570   1.272       .  A
O567       Cd572   2.574   1_556  S
C568        O577   1.265       .  A
C568        O573   1.272       .  A
C568        C583   1.486       .  S
O569        C575   1.271       .  A
O569       Cd572   2.515       .  S
C570        O578   1.263       .  A
C571        O576   1.270       .  A
C571        O574   1.267       .  A
C571        C837   1.488       .  S
Cd572       O579   2.441       .  S
Cd572       O578   2.459   1_554  S
Cd572       O577   2.472       .  S
Cd572       O573   2.545       .  S
Cd572       O576   2.482   1_554  S
Cd572       O574   2.461   1_554  S
C575        O579   1.265       .  A
C575        C657   1.493       .  S
O580        C583   1.271       .  A
O580       Cd585   2.546       .  S
C581        O590   1.264       .  A
C581        O586   1.272       .  A
O582        C588   1.271       .  A
O582       Cd585   2.481       .  S
C583        O591   1.265       .  A
C584        O589   1.270       .  A
C584        O587   1.266       .  A
C584        C927   1.476       .  S
Cd585       O592   2.412       .  S
Cd585       O591   2.475       .  S
Cd585       O590   2.459       .  S
Cd585       O586   2.524       .  S
Cd585       O589   2.458       .  S
Cd585       O587   2.403       .  S
C588        O592   1.265       .  A
C588        C737   1.483       .  S
C593        C594   1.415       .  A
C593        C598   1.410       .  A
C593       Br600   1.925       .  S
C594        C595   1.424       .  A
C595        C596   1.409       .  A
C595       Br602   1.928       .  S
C596        C597   1.410       .  A
C596       Br601   1.934       .  S
C597        C598   1.410       .  A
C598       Br599   1.931       .  S
C603        C604   1.405       .  A
C603        C608   1.406   1_655  A
C603       Br610   1.917       .  S
C604        C605   1.416       .  A
C605        C606   1.417   1_655  A
C605       Br612   1.932       .  S
C606        C607   1.420       .  A
C606       Br611   1.933       .  S
C607        C608   1.411       .  A
C608       Br609   1.913       .  S
C613        C614   1.427       .  A
C613        C618   1.394       .  A
C613       Br620   1.930       .  S
C614        C615   1.422       .  A
C615        C616   1.414       .  A
C615       Br622   1.931       .  S
C616        C617   1.423       .  A
C616       Br621   1.927       .  S
C617        C618   1.406       .  A
C618       Br619   1.921       .  S
C623        C624   1.409       .  A
C623        C628   1.412       .  A
C623       Br630   1.926       .  S
C624        C625   1.407       .  A
C625        C626   1.408       .  A
C625       Br632   1.933       .  S
C626        C627   1.410   1_655  A
C626       Br631   1.916   1_655  S
C627        C628   1.409   1_455  A
C628       Br629   1.929   1_655  S
C633        C634   1.408       .  A
C633        C638   1.410       .  A
C633       Br640   1.913       .  S
C634        C635   1.413       .  A
C635        C636   1.414       .  A
C635       Br642   1.935       .  S
C636        C637   1.422       .  A
C636       Br641   1.936       .  S
C637        C638   1.413       .  A
C638       Br639   1.925       .  S
C643        C644   1.403       .  A
C643        C648   1.407       .  A
C643       Br650   1.915       .  S
C644        C645   1.417       .  A
C645        C646   1.408       .  A
C645       Br652   1.940       .  S
C646        C647   1.421       .  A
C646       Br651   1.937       .  S
C647        C648   1.412       .  A
C648       Br649   1.907       .  S
C653        C654   1.422       .  A
C653        C658   1.409       .  A
C653       Br660   1.918       .  S
C654        C655   1.415       .  A
C655        C656   1.417       .  A
C655       Br662   1.926       .  S
C656        C657   1.414       .  A
C656       Br661   1.927       .  S
C657        C658   1.412       .  A
C658       Br659   1.938       .  S
C663        C664   1.405       .  A
C663        C668   1.410       .  A
C663       Br670   1.921       .  S
C664        C665   1.422       .  A
C665        C666   1.404       .  A
C665       Br672   1.941       .  S
C666        C667   1.412       .  A
C666       Br671   1.938       .  S
C667        C668   1.411       .  A
C668       Br669   1.917       .  S
C673        C674   1.413   1_556  A
C673        C678   1.411   1_655  A
C673       Br680   1.920       .  S
C674        C675   1.422       .  A
C675        C676   1.423   1_655  A
C675       Br682   1.934       .  S
C676        C677   1.422       .  A
C676       Br681   1.934       .  S
C677        C678   1.415   1_554  A
C678       Br679   1.917       .  S
C683        C684   1.426       .  A
C683        C688   1.410       .  A
C683       Br690   1.953       .  S
C684        C685   1.418       .  A
C685        C686   1.416       .  A
C685       Br692   1.929       .  S
C686        C687   1.419       .  A
C686       Br691   1.926       .  S
C687        C688   1.423       .  A
C688       Br689   1.940       .  S
C693        C694   1.412       .  A
C693        C698   1.406       .  A
C693       Br700   1.922       .  S
C694        C695   1.410       .  A
C695        C696   1.415       .  A
C695       Br702   1.917       .  S
C696        C697   1.411       .  A
C696       Br701   1.922       .  S
C697        C698   1.409       .  A
C698       Br699   1.924       .  S
C703        C704   1.409       .  A
C703        C708   1.410       .  A
C703       Br710   1.920       .  S
C704        C705   1.410       .  A
C705        C706   1.397       .  A
C705       Br712   1.922       .  S
C706        C707   1.405       .  A
C706       Br711   1.921       .  S
C707        C708   1.408       .  A
C708       Br709   1.922       .  S
C713        C714   1.408       .  A
C713        C718   1.400   1_455  A
C713       Br720   1.909   1_554  S
C714        C715   1.411       .  A
C715        C716   1.410   1_455  A
C715       Br722   1.928       .  S
C716        C717   1.408       .  A
C716       Br721   1.927       .  S
C717        C718   1.404       .  A
C718       Br719   1.937   1_554  S
C723        C724   1.413       .  A
C723        C728   1.415       .  A
C723       Br730   1.920       .  S
C724        C725   1.409       .  A
C725        C726   1.413       .  A
C725       Br732   1.922       .  S
C726        C727   1.418       .  A
C726       Br731   1.925       .  S
C727        C728   1.422       .  A
C728       Br729   1.933       .  S
C733        C734   1.412       .  A
C733        C738   1.413       .  A
C733       Br740   1.926       .  S
C734        C735   1.421       .  A
C735        C736   1.405       .  A
C735       Br742   1.918       .  S
C736        C737   1.411       .  A
C736       Br741   1.939       .  S
C737        C738   1.413       .  A
C738       Br739   1.928       .  S
C743        C744   1.416       .  A
C743        C748   1.409   1_455  A
C743       Br750   1.929       .  S
C744        C745   1.417       .  A
C745        C746   1.411   1_455  A
C745       Br752   1.924       .  S
C746        C747   1.408       .  A
C746       Br751   1.921       .  S
C747        C748   1.412       .  A
C748       Br749   1.919       .  S
C753        C754   1.418       .  A
C753        C758   1.421       .  A
C753       Br760   1.933       .  S
C754        C755   1.405       .  A
C755        C756   1.408       .  A
C755       Br762   1.927       .  S
C756        C757   1.420       .  A
C756       Br761   1.909       .  S
C757        C758   1.422       .  A
C758       Br759   1.934       .  S
C763        C764   1.424       .  A
C763        C768   1.411       .  A
C763       Br770   1.935       .  S
C764        C765   1.419       .  A
C765        C766   1.400       .  A
C765       Br772   1.911       .  S
C766        C767   1.395       .  A
C766       Br771   1.934       .  S
C767        C768   1.404       .  A
C768       Br769   1.930       .  S
C773        C774   1.415       .  A
C773        C778   1.412   1_455  A
C773       Br780   1.918       .  S
C774        C775   1.414       .  A
C775        C776   1.415   1_455  A
C775       Br782   1.931       .  S
C776        C777   1.417       .  A
C776       Br781   1.919       .  S
C777        C778   1.410       .  A
C778       Br779   1.926       .  S
C783        C784   1.408       .  A
C783        C788   1.400       .  A
C783       Br790   1.917       .  S
C784        C785   1.420       .  A
C785        C786   1.413       .  A
C785       Br792   1.924       .  S
C786        C787   1.409       .  A
C786       Br791   1.925       .  S
C787        C788   1.406       .  A
C788       Br789   1.920       .  S
C793        C794   1.402       .  A
C793        C798   1.402       .  A
C793       Br800   1.920       .  S
C794        C795   1.419       .  A
C795        C796   1.405       .  A
C795       Br802   1.938       .  S
C796        C797   1.411       .  A
C796       Br801   1.934       .  S
C797        C798   1.410       .  A
C798       Br799   1.929       .  S
C803        C804   1.417       .  A
C803        C808   1.415       .  A
C803       Br810   1.926       .  S
C804        C805   1.417   1_556  A
C805        C806   1.409       .  A
C805       Br812   1.917       .  S
C806        C807   1.404   1_554  A
C806       Br811   1.933       .  S
C807        C808   1.407       .  A
C808       Br809   1.928       .  S
C813        C814   1.413       .  A
C813        C818   1.405       .  A
C813       Br820   1.943       .  S
C814        C815   1.403       .  A
C815        C816   1.407       .  A
C815       Br822   1.925       .  S
C816        C817   1.415       .  A
C816       Br821   1.920       .  S
C817        C818   1.423       .  A
C818       Br819   1.943       .  S
C823        C824   1.418       .  A
C823        C828   1.421   1_655  A
C823       Br830   1.934       .  S
C824        C825   1.413       .  A
C825        C826   1.405   1_655  A
C825       Br832   1.934   1_556  S
C826        C827   1.430       .  A
C826       Br831   1.934   1_556  S
C827        C828   1.428       .  A
C828       Br829   1.936       .  S
C833        C834   1.419       .  A
C833        C838   1.408       .  A
C833       Br840   1.928       .  S
C834        C835   1.415       .  A
C835        C836   1.413       .  A
C835       Br842   1.928       .  S
C836        C837   1.413       .  A
C836       Br841   1.929       .  S
C837        C838   1.413       .  A
C838       Br839   1.932   1_556  S
C843        C844   1.420       .  A
C843        C848   1.403       .  A
C843       Br850   1.938       .  S
C844        C845   1.419       .  A
C845        C846   1.411       .  A
C845       Br852   1.921       .  S
C846        C847   1.405       .  A
C846       Br851   1.927       .  S
C847        C848   1.420       .  A
C848       Br849   1.946       .  S
C853        C854   1.412       .  A
C853        C858   1.408       .  A
C853       Br860   1.942       .  S
C854        C855   1.407       .  A
C855        C856   1.407   1_655  A
C855       Br862   1.923       .  S
C856        C857   1.414       .  A
C856       Br861   1.926       .  S
C857        C858   1.424   1_455  A
C858       Br859   1.926   1_655  S
C863        C864   1.408       .  A
C863        C868   1.400       .  A
C863       Br870   1.915   1_556  S
C864        C865   1.417       .  A
C865        C866   1.418       .  A
C865       Br872   1.930       .  S
C866        C867   1.415       .  A
C866       Br871   1.929       .  S
C867        C868   1.405       .  A
C868       Br869   1.911   1_556  S
C873        C874   1.410       .  A
C873        C878   1.408       .  A
C873       Br880   1.932       .  S
C874        C875   1.411       .  A
C875        C876   1.413       .  A
C875       Br882   1.929       .  S
C876        C877   1.417       .  A
C876       Br881   1.932       .  S
C877        C878   1.417       .  A
C878       Br879   1.924       .  S
C883        C884   1.425       .  A
C883        C888   1.415       .  A
C883       Br890   1.935       .  S
C884        C885   1.423       .  A
C885        C886   1.402       .  A
C885       Br892   1.919   1_556  S
C886        C887   1.405       .  A
C886       Br891   1.941   1_556  S
C887        C888   1.410       .  A
C888       Br889   1.932       .  S
C893        C894   1.412       .  A
C893        C898   1.409       .  A
C893       Br900   1.934       .  S
C894        C895   1.414       .  A
C895        C896   1.412       .  A
C895       Br902   1.927       .  S
C896        C897   1.409       .  A
C896       Br901   1.925       .  S
C897        C898   1.419       .  A
C898       Br899   1.917       .  S
C903        C904   1.411       .  A
C903        C908   1.409       .  A
C903       Br910   1.941       .  S
C904        C905   1.413       .  A
C905        C906   1.417       .  A
C905       Br912   1.931       .  S
C906        C907   1.419       .  A
C906       Br911   1.926       .  S
C907        C908   1.431       .  A
C908       Br909   1.936       .  S
C913        C914   1.412       .  A
C913        C918   1.417       .  A
C913       Br920   1.927       .  S
C914        C915   1.408       .  A
C915        C916   1.403       .  A
C915       Br922   1.909       .  S
C916        C917   1.404       .  A
C916       Br921   1.931       .  S
C917        C918   1.413       .  A
C918       Br919   1.927       .  S
C923        C924   1.415       .  A
C923        C928   1.412       .  A
C923       Br930   1.926       .  S
C924        C925   1.423       .  A
C925        C926   1.402       .  A
C925       Br932   1.930       .  S
C926        C927   1.409       .  A
C926       Br931   1.937       .  S
C927        C928   1.411       .  A
C928       Br929   1.931       .  S
C933        C934   1.412       .  A
C933        C938   1.411       .  A
C933       Br940   1.933       .  S
C934        C935   1.412       .  A
C935        C936   1.403       .  A
C935       Br942   1.917       .  S
C936        C937   1.404       .  A
C936       Br941   1.920       .  S
C937        C938   1.416       .  A
C938       Br939   1.932       .  S
C943        C944   1.414       .  A
C943        C948   1.410       .  A
C943       Br950   1.938       .  S
C944        C945   1.415       .  A
C945        C946   1.414       .  A
C945       Br952   1.929       .  S
C946        C947   1.413       .  A
C946       Br951   1.926       .  S
C947        C948   1.428       .  A
C948       Br949   1.936       .  S
C953        C954   1.411       .  A
C953        C958   1.413       .  A
C953       Br960   1.926       .  S
C954        C955   1.415       .  A
C955        C956   1.416       .  A
C955       Br962   1.935       .  S
C956        C957   1.423       .  A
C956       Br961   1.936       .  S
C957        C958   1.413       .  A
C958       Br959   1.916       .  S
C963        C964   1.404       .  A
C963        C968   1.396       .  A
C963       Br970   1.917       .  S
C964        C965   1.416       .  A
C965        C966   1.420       .  A
C965       Br972   1.934       .  S
C966        C967   1.429       .  A
C966       Br971   1.939       .  S
C967        C968   1.415       .  A
C968       Br969   1.927       .  S
C973        C974   1.418       .  A
C973        C978   1.416       .  A
C973       Br980   1.933       .  S
C974        C975   1.414       .  A
C975        C976   1.412       .  A
C975       Br982   1.930       .  S
C976        C977   1.412       .  A
C976       Br981   1.925       .  S
C977        C978   1.424       .  A
C978       Br979   1.928       .  S
C983        C984   1.409       .  A
C983        C988   1.407       .  A
C983       Br990   1.938       .  S
C984        C985   1.402       .  A
C985        C986   1.405       .  A
C985       Br992   1.929       .  S
C986        C987   1.409       .  A
C986       Br991   1.915       .  S
C987        C988   1.420       .  A
C988       Br989   1.926       .  S
C993        C994   1.408       .  A
C993        C998   1.382       .  A
C993      Br1000   1.930       .  S
C994        C995   1.422       .  A
C995        C996   1.429       .  A
C995      Br1002   1.932       .  S
C996        C997   1.435       .  A
C996      Br1001   1.932       .  S
C997        C998   1.416       .  A
C998       Br999   1.933       .  S
C1003      C1004   1.398       .  A
C1003      C1008   1.395       .  A
C1003     Br1010   1.925       .  S
C1004      C1005   1.414       .  A
C1005      C1006   1.424       .  A
C1005     Br1012   1.931       .  S
C1006      C1007   1.427       .  A
C1006     Br1011   1.932       .  S
C1007      C1008   1.426       .  A
C1008     Br1009   1.933       .  S
C1013      C1014   1.422       .  A
C1013      C1018   1.409       .  A
C1013     Br1020   1.931       .  S
C1014      C1015   1.412       .  A
C1015      C1016   1.411       .  A
C1015     Br1022   1.928       .  S
C1016      C1017   1.412       .  A
C1016     Br1021   1.929       .  S
C1017      C1018   1.411       .  A
C1018     Br1019   1.933       .  S
C1023      C1024   1.431       .  A
C1023      C1028   1.409       .  A
C1023     Br1030   1.954       .  S
C1024      C1025   1.416       .  A
C1025      C1026   1.407       .  A
C1025     Br1032   1.923       .  S
C1026      C1027   1.410       .  A
C1026     Br1031   1.911       .  S
C1027      C1028   1.418       .  A
C1028     Br1029   1.939       .  S
C1033      C1034   1.408       .  A
C1033      C1038   1.402       .  A
C1033     Br1040   1.905       .  S
C1034      C1035   1.416       .  A
C1035      C1036   1.425       .  A
C1035     Br1042   1.926       .  S
C1036      C1037   1.420       .  A
C1036     Br1041   1.928       .  S
C1037      C1038   1.408       .  A
C1038     Br1039   1.919       .  S
C1043      C1044   1.416       .  A
C1043      C1048   1.406       .  A
C1043     Br1050   1.939       .  S
C1044      C1045   1.415       .  A
C1045      C1046   1.414       .  A
C1045     Br1052   1.924       .  S
C1046      C1047   1.419       .  A
C1046     Br1051   1.919       .  S
C1047      C1048   1.426       .  A
C1048     Br1049   1.940       .  S
C1053      C1054   1.416       .  A
C1053      C1058   1.403       .  A
C1053     Br1060   1.918       .  S
C1054      C1055   1.418       .  A
C1055      C1056   1.413       .  A
C1055     Br1062   1.930       .  S
C1056      C1057   1.417       .  A
C1056     Br1061   1.937       .  S
C1057      C1058   1.406       .  A
C1058     Br1059   1.928       .  S
C1063      C1064   1.408       .  A
C1063      C1068   1.408       .  A
C1063     Br1070   1.928       .  S
C1064      C1065   1.412       .  A
C1065      C1066   1.413       .  A
C1065     Br1072   1.932       .  S
C1066      C1067   1.410       .  A
C1066     Br1071   1.923       .  S
C1067      C1068   1.412       .  A
C1068     Br1069   1.930       .  S
C1073      C1074   1.412       .  A
C1073      C1078   1.409       .  A
C1073     Br1080   1.922       .  S
C1074      C1075   1.404       .  A
C1075      C1076   1.414       .  A
C1075     Br1082   1.925       .  S
C1076      C1077   1.418       .  A
C1076     Br1081   1.919       .  S
C1077      C1078   1.407       .  A
C1078     Br1079   1.925       .  S
C1083      C1084   1.430       .  A
C1083      C1088   1.409       .  A
C1083     Br1090   1.940       .  S
C1084      C1085   1.424       .  A
C1085      C1086   1.417       .  A
C1085     Br1092   1.931       .  S
C1086      C1087   1.409       .  A
C1086     Br1091   1.931       .  S
C1087      C1088   1.407       .  A
C1088     Br1089   1.937       .  S
C1093      C1094   1.425       .  A
C1093      C1098   1.406       .  A
C1093     Br1100   1.913       .  S
C1094      C1095   1.428       .  A
C1095      C1096   1.424       .  A
C1095     Br1102   1.930       .  S
C1096      C1097   1.410       .  A
C1096     Br1101   1.929       .  S
C1097      C1098   1.396       .  A
C1098     Br1099   1.930       .  S
C1103      C1104   1.420       .  A
C1103      C1108   1.408       .  A
C1103     Br1110   1.931       .  S
C1104      C1105   1.412       .  A
C1105      C1106   1.410       .  A
C1105     Br1112   1.925       .  S
C1106      C1107   1.412       .  A
C1106     Br1111   1.929       .  S
C1107      C1108   1.412       .  A
C1108     Br1109   1.935       .  S
C1113      C1114   1.423       .  A
C1113      C1118   1.387       .  A
C1113     Br1120   1.928       .  S
C1114      C1115   1.429       .  A
C1115      C1116   1.417       .  A
C1115     Br1122   1.931       .  S
C1116      C1117   1.413       .  A
C1116     Br1121   1.936       .  S
C1117      C1118   1.405       .  A
C1118     Br1119   1.935       .  S
C1123      C1124   1.412       .  A
C1123      C1128   1.409       .  A
C1123     Br1130   1.921       .  S
C1124      C1125   1.412       .  A
C1125      C1126   1.418       .  A
C1125     Br1132   1.925       .  S
C1126      C1127   1.419       .  A
C1126     Br1131   1.926       .  S
C1127      C1128   1.409       .  A
C1128     Br1129   1.927       .  S
C1133      C1134   1.430       .  A
C1133      C1138   1.398       .  A
C1133     Br1140   1.932       .  S
C1134      C1135   1.422       .  A
C1135      C1136   1.416       .  A
C1135     Br1142   1.924       .  S
C1136      C1137   1.407       .  A
C1136     Br1141   1.930       .  S
C1137      C1138   1.402       .  A
C1138     Br1139   1.944       .  S
C1143      C1144   1.405       .  A
C1143      C1148   1.404       .  A
C1143     Br1150   1.926       .  S
C1144      C1145   1.417       .  A
C1145      C1146   1.407       .  A
C1145     Br1152   1.929       .  S
C1146      C1147   1.402       .  A
C1146     Br1151   1.927       .  S
C1147      C1148   1.418       .  A
C1148     Br1149   1.934       .  S
C1153      C1154   1.436       .  A
C1153      C1158   1.418       .  A
C1153     Br1160   1.939       .  S
C1154      C1155   1.438       .  A
C1155      C1156   1.408       .  A
C1155     Br1162   1.940       .  S
C1156      C1157   1.402       .  A
C1156     Br1161   1.939       .  S
C1157      C1158   1.410       .  A
C1158     Br1159   1.940       .  S
C1163      C1164   1.411       .  A
C1163      C1168   1.404       .  A
C1163     Br1170   1.922       .  S
C1164      C1165   1.407       .  A
C1165      C1166   1.411       .  A
C1165     Br1172   1.929       .  S
C1166      C1167   1.423       .  A
C1166     Br1171   1.919       .  S
C1167      C1168   1.415       .  A
C1168     Br1169   1.932       .  S
C1173      C1174   1.420       .  A
C1173      C1178   1.424       .  A
C1173     Br1180   1.927       .  S
C1174      C1175   1.394       .  A
C1175      C1176   1.383       .  A
C1175     Br1182   1.919       .  S
C1176      C1177   1.426       .  A
C1176     Br1181   1.930       .  S
C1177      C1178   1.431       .  A
C1178     Br1179   1.929       .  S
C1183      C1184   1.417       .  A
C1183      C1188   1.402       .  A
C1183     Br1190   1.935       .  S
C1184      C1185   1.403       .  A
C1185      C1186   1.406       .  A
C1185     Br1192   1.918       .  S
C1186      C1187   1.413       .  A
C1186     Br1191   1.922       .  S
C1187      C1188   1.405       .  A
C1188     Br1189   1.920       .  S
C1193      C1194   1.411       .  A
C1193      C1198   1.409       .  A
C1193     Br1200   1.917       .  S
C1194      C1195   1.410       .  A
C1195      C1196   1.408       .  A
C1195     Br1202   1.927       .  S
C1196      C1197   1.410       .  A
C1196     Br1201   1.920       .  S
C1197      C1198   1.409       .  A
C1198     Br1199   1.923       .  S
C1203      C1204   1.408       .  A
C1203      C1208   1.405       .  A
C1203     Br1210   1.922       .  S
C1204      C1205   1.408       .  A
C1205      C1206   1.396       .  A
C1205     Br1212   1.942       .  S
C1206      C1207   1.421       .  A
C1206     Br1211   1.941       .  S
C1207      C1208   1.407       .  A
C1208     Br1209   1.925       .  S
C1213      C1214   1.410       .  A
C1213      C1218   1.400       .  A
C1213     Br1220   1.928       .  S
C1214      C1215   1.415       .  A
C1215      C1216   1.419       .  A
C1215     Br1222   1.933       .  S
C1216      C1217   1.425       .  A
C1216     Br1221   1.932       .  S
C1217      C1218   1.423       .  A
C1218     Br1219   1.926       .  S
C1223      C1224   1.407       .  A
C1223      C1228   1.415       .  A
C1223     Br1230   1.930       .  S
C1224      C1225   1.401       .  A
C1225      C1226   1.409       .  A
C1225     Br1232   1.933       .  S
C1226      C1227   1.417       .  A
C1226     Br1231   1.911       .  S
C1227      C1228   1.416       .  A
C1228     Br1229   1.927       .  S
C1233      C1234   1.413       .  A
C1233      C1238   1.408       .  A
C1233     Br1240   1.934       .  S
C1234      C1235   1.415       .  A
C1235      C1236   1.416       .  A
C1235     Br1242   1.930       .  S
C1236      C1237   1.417       .  A
C1236     Br1241   1.930       .  S
C1237      C1238   1.416       .  A
C1238     Br1239   1.913       .  S
C1243      C1244   1.416       .  A
C1243      C1248   1.414       .  A
C1243     Br1250   1.929       .  S
C1244      C1245   1.420       .  A
C1245      C1246   1.400       .  A
C1245     Br1252   1.934       .  S
C1246      C1247   1.408       .  A
C1246     Br1251   1.936       .  S
C1247      C1248   1.412       .  A
C1248     Br1249   1.927       .  S
C1253      C1254   1.416       .  A
C1253      C1258   1.418       .  A
C1253     Br1260   1.930       .  S
C1254      C1255   1.414       .  A
C1255      C1256   1.412       .  A
C1255     Br1262   1.936       .  S
C1256      C1257   1.428       .  A
C1256     Br1261   1.938       .  S
C1257      C1258   1.415       .  A
C1258     Br1259   1.927       .  S
C1263      C1264   1.412       .  A
C1263      C1268   1.413       .  A
C1263     Br1270   1.931       .  S
C1264      C1265   1.412       .  A
C1265      C1266   1.411       .  A
C1265     Br1272   1.934       .  S
C1266      C1267   1.425       .  A
C1266     Br1271   1.930       .  S
C1267      C1268   1.416       .  A
C1268     Br1269   1.927       .  S
C1273      C1274   1.405       .  A
C1273      C1278   1.415       .  A
C1273     Br1280   1.930       .  S
C1274      C1275   1.403       .  A
C1275      C1276   1.407       .  A
C1275     Br1282   1.941       .  S
C1276      C1277   1.430       .  A
C1276     Br1281   1.924       .  S
C1277      C1278   1.427       .  A
C1278     Br1279   1.934       .  S
C1283      C1284   1.414       .  A
C1283      C1288   1.413       .  A
C1283     Br1290   1.926       .  S
C1284      C1285   1.410       .  A
C1285      C1286   1.407       .  A
C1285     Br1292   1.935       .  S
C1286      C1287   1.422       .  A
C1286     Br1291   1.922       .  S
C1287      C1288   1.410       .  A
C1288     Br1289   1.926       .  S
C1293      C1294   1.411       .  A
C1293      C1298   1.413       .  A
C1293     Br1300   1.930       .  S
C1294      C1295   1.409   1_554  A
C1295      C1296   1.406   1_556  A
C1295     Br1302   1.929       .  S
C1296      C1297   1.417       .  A
C1296     Br1301   1.927   1_554  S
C1297      C1298   1.418       .  A
C1298     Br1299   1.931       .  S
C1303      C1304   1.415       .  A
C1303      C1308   1.414       .  A
C1303     Br1310   1.930       .  S
C1304      C1305   1.417       .  A
C1305      C1306   1.412       .  A
C1305     Br1312   1.934       .  S
C1306      C1307   1.422       .  A
C1306     Br1311   1.934       .  S
C1307      C1308   1.414       .  A
C1308     Br1309   1.929       .  S
C1313      C1314   1.412       .  A
C1313      C1318   1.414       .  A
C1313     Br1320   1.930       .  S
C1314      C1315   1.410       .  A
C1315      C1316   1.407       .  A
C1315     Br1322   1.938       .  S
C1316      C1317   1.424       .  A
C1316     Br1321   1.925       .  S
C1317      C1318   1.416       .  A
C1318     Br1319   1.925       .  S
C1323      C1324   1.427       .  A
C1323      C1328   1.404       .  A
C1323     Br1330   1.938       .  S
C1324      C1325   1.419       .  A
C1325      C1326   1.414       .  A
C1325     Br1332   1.929       .  S
C1326      C1327   1.410       .  A
C1326     Br1331   1.929       .  S
C1327      C1328   1.407       .  A
C1328     Br1329   1.938       .  S
C1333      C1334   1.429       .  A
C1333      C1338   1.408       .  A
C1333     Br1340   1.936       .  S
C1334      C1335   1.414       .  A
C1335      C1336   1.416       .  A
C1335     Br1342   1.927       .  S
C1336      C1337   1.415       .  A
C1336     Br1341   1.929       .  S
C1337      C1338   1.409       .  A
C1338     Br1339   1.938       .  S
C1343      C1344   1.414       .  A
C1343      C1348   1.418       .  A
C1343     Br1350   1.931       .  S
C1344      C1345   1.412       .  A
C1345      C1346   1.407       .  A
C1345     Br1352   1.936       .  S
C1346      C1347   1.424       .  A
C1346     Br1351   1.932       .  S
C1347      C1348   1.419       .  A
C1348     Br1349   1.928       .  S
C1353      C1354   1.413       .  A
C1353      C1358   1.413       .  A
C1353     Br1360   1.931       .  S
C1354      C1355   1.414       .  A
C1355      C1356   1.409       .  A
C1355     Br1362   1.937       .  S
C1356      C1357   1.424       .  A
C1356     Br1361   1.933       .  S
C1357      C1358   1.416       .  A
C1358     Br1359   1.928       .  S
C1363      C1364   1.415       .  A
C1363      C1368   1.409       .  A
C1363     Br1370   1.931       .  S
C1364      C1365   1.417       .  A
C1365      C1366   1.410       .  A
C1365     Br1372   1.933       .  S
C1366      C1367   1.416       .  A
C1366     Br1371   1.920       .  S
C1367      C1368   1.413       .  A
C1368     Br1369   1.928       .  S
C1373      C1374   1.415       .  A
C1373      C1378   1.405       .  A
C1373     Br1380   1.916       .  S
C1374      C1375   1.413       .  A
C1375      C1376   1.411       .  A
C1375     Br1382   1.930       .  S
C1376      C1377   1.411       .  A
C1376     Br1381   1.927       .  S
C1377      C1378   1.413       .  A
C1378     Br1379   1.936       .  S
C1383      C1384   1.413       .  A
C1383      C1388   1.409       .  A
C1383     Br1390   1.935       .  S
C1384      C1385   1.411       .  A
C1385      C1386   1.413       .  A
C1385     Br1392   1.928       .  S
C1386      C1387   1.413       .  A
C1386     Br1391   1.925       .  S
C1387      C1388   1.423       .  A
C1388     Br1389   1.932       .  S
