geometry optimzed in LAMMPS
_audit_creation_date              2020-11-30 
_audit_creation_method            'lammps2cif' 
_symmetry_space_group_name_H-M    'P1' 
_symmetry_Int_Tables_number       1 
_symmetry_cell_setting            triclinic 
loop_ 
_symmetry_equiv_pos_as_xyz 
  x,y,z 
_cell_length_a                    26.5617172 
_cell_length_b                    30.906192022848003 
_cell_length_c                    43.82395223062721 
_cell_angle_alpha                 93.93492607538596 
_cell_angle_beta                  94.48677550013288 
_cell_angle_gamma                 68.64632211611325 
loop_ 
_atom_site_label 
_atom_site_type_symbol 
_atom_site_fract_x 
_atom_site_fract_y 
_atom_site_fract_z 
_atom_site_charge 
O1          O  0.14600483  0.20298006  0.01515269    -0.80100
O2          O  0.89506151  0.23306098  0.00882646    -0.64800
O3          O  0.04083049  0.21255801  0.49269050    -1.11400
C4          C  0.98409055  0.37509220  0.49368815     1.07100
O5          O  0.85339188  0.29653641  0.48335117    -0.78000
O6          O  0.92877390  0.29789402  0.44558465    -0.65600
Ni7        Ni  0.09690237  0.17007775  0.01627980     1.34900
C8          C  0.97674744  0.28418606  0.43680717     0.85500
O9          O  0.97785684  0.15881210  0.99369283    -0.78600
O10         O  0.05812397  0.12837120  0.01896970    -0.88900
C11         C  0.85271900  0.26199626  0.49727012     0.85100
O12         O  0.07017663  0.20343371  0.05339096    -0.67100
O13         O  0.94051520  0.37216543  0.48115650    -0.86300
C14         C  0.02220415  0.21620093  0.06206941     0.85900
C15         C  0.01532498  0.12484749  0.00572415     1.07400
H16         H  0.95367494  0.29681937  0.02817053     0.39300
O17         O  0.95869106  0.28696771  0.00687726    -1.09000
O18         O  0.01711601  0.28305725  0.45486170    -0.65700
Ni19       Ni  0.03209810  0.27673501  0.49841196     1.26300
O20         O  0.98249807  0.21559511  0.04402781    -0.65900
O21         O  0.02231947  0.34063827  0.50469562    -0.78200
C22         C  0.14681120  0.23755496  0.00132587     0.85300
O23         O  0.10496486  0.26561997  0.49000768    -0.65400
Ni24       Ni  0.90217990  0.32999553  0.48302679     1.27400
Ni25       Ni  0.96762843  0.22272128  0.00050576     1.26100
H26         H  0.04649912  0.20213488  0.47150886     0.39800
O27         O  0.14595548  0.19946989  0.26632223    -0.80100
O28         O  0.89480324  0.22958467  0.25704479    -0.64800
O29         O  0.04058816  0.21122479  0.24233323    -1.11400
C30         C  0.98247238  0.37361940  0.24498953     1.06700
O31         O  0.85339858  0.29367333  0.23136720    -0.78000
O32         O  0.93094688  0.29528176  0.19543107    -0.65600
Ni33       Ni  0.09615701  0.16732787  0.26714415     1.34900
C34         C  0.97929988  0.28278798  0.18742487     0.85500
O35         O  0.97846742  0.15603920  0.24238884    -0.78600
O36         O  0.05646093  0.12632488  0.26979669    -0.88900
C37         C  0.85253641  0.25868796  0.24466801     0.85100
O38         O  0.06834950  0.20189047  0.30352502    -0.67100
O39         O  0.93996695  0.37010232  0.23135454    -0.86300
C40         C  0.02024941  0.21434308  0.31189439     0.85900
C41         C  0.01483106  0.12238483  0.25531884     1.07400
H42         H  0.95158912  0.29370872  0.27831673     0.39300
O43         O  0.95796120  0.28410882  0.25707394    -1.09000
O44         O  0.01839178  0.28316765  0.20606781    -0.65700
Ni45       Ni  0.03103248  0.27559214  0.24967313     1.26300
O46         O  0.98126943  0.21232668  0.29366719    -0.65900
O47         O  0.01987812  0.33962537  0.25708236    -0.78200
C48         C  0.14679775  0.23534554  0.25416086     0.85300
O49         O  0.10428445  0.26598976  0.24313520    -0.65400
Ni50       Ni  0.90184332  0.32761251  0.23227427     1.27400
Ni51       Ni  0.96766537  0.21987839  0.24997979     1.26100
H52         H  0.04675929  0.20166364  0.22108078     0.39800
O53         O  0.64675706  0.20260288  0.01785143    -0.80100
O54         O  0.39612718  0.22961461  0.00572820    -0.64800
O55         O  0.54336512  0.20946515  0.49195489    -1.11400
C56         C  0.48603289  0.37177930  0.49416767     1.06700
O57         O  0.35581114  0.29323406  0.48125753    -0.78000
O58         O  0.43318959  0.29351054  0.44466980    -0.65600
Ni59       Ni  0.59901170  0.16788977  0.01639730     1.34900
C60         C  0.48142438  0.28032412  0.43637346     0.85500
O61         O  0.48065368  0.15550884  0.99215069    -0.78600
O62         O  0.56165106  0.12481059  0.01683837    -0.88900
C63         C  0.35455720  0.25822466  0.49437287     0.85100
O64         O  0.56960705  0.19930421  0.05342102    -0.67100
O65         O  0.44367819  0.36843486  0.48019627    -0.86300
C66         C  0.52129936  0.21189630  0.06150831     0.85900
C67         C  0.51859205  0.12144930  0.00387456     1.07400
H68         H  0.45410104  0.29359608  0.02739072     0.39300
O69         O  0.46003661  0.28403250  0.00610563    -1.09000
O70         O  0.52067492  0.28082651  0.45488390    -0.65700
Ni71       Ni  0.53380627  0.27370909  0.49862696     1.26300
O72         O  0.48209916  0.21234447  0.04271335    -0.65900
O73         O  0.52327034  0.33754536  0.50601476    -0.78200
C74         C  0.64788633  0.23671907  0.00365565     0.85300
O75         O  0.60668844  0.26365021  0.49140316    -0.65400
Ni76       Ni  0.40492631  0.32639880  0.48155455     1.27400
Ni77       Ni  0.46950007  0.21965173  0.99909442     1.26100
H78         H  0.54969993  0.19962293  0.47074099     0.39800
O79         O  0.64741648  0.19714291  0.26310087    -0.80100
O80         O  0.39620247  0.22768251  0.25832191    -0.64800
O81         O  0.54104452  0.20893137  0.24055007    -1.11400
C82         C  0.48428200  0.37099219  0.24493911     1.06700
O83         O  0.35398278  0.29277666  0.23369492    -0.78000
O84         O  0.42937189  0.29311299  0.19575344    -0.65600
Ni85       Ni  0.59805239  0.16463038  0.26443168     1.34900
C86         C  0.47716296  0.28078236  0.18691584     0.85500
O87         O  0.47887322  0.15375013  0.24194922    -0.78600
O88         O  0.55902495  0.12316063  0.26724871    -0.88900
C89         C  0.35339870  0.25787477  0.24721046     0.85100
O90         O  0.57231284  0.19777201  0.30179149    -0.67100
O91         O  0.44179343  0.36765226  0.23111632    -0.86300
C92         C  0.52468739  0.21002792  0.31092327     0.85900
C93         C  0.51630366  0.11965378  0.25389907     1.07400
H94         H  0.45458157  0.29087807  0.27848306     0.39300
O95         O  0.45976707  0.28164878  0.25710061    -1.09000
O96         O  0.51650919  0.28235047  0.20494202    -0.65700
Ni97       Ni  0.53213995  0.27306303  0.24829561     1.26300
O98         O  0.48494691  0.20886396  0.29306399    -0.65900
O99         O  0.52176404  0.33669373  0.25659248    -0.78200
C100        C  0.64758238  0.23298625  0.25058298     0.85300
O101        O  0.60462088  0.26355272  0.24002618    -0.65400
Ni102      Ni  0.40294710  0.32582825  0.23308878     1.27400
Ni103      Ni  0.46869517  0.21758226  0.24969238     1.26100
H104        H  0.54597089  0.19991325  0.21912918     0.39800
O105        O  0.03750226  0.42262112  0.49833187    -0.73700
O106        O  0.05239826  0.04169181  0.50587227    -0.73700
O107        O  0.04203276  0.48320984  0.04535111    -0.73800
O108        O  0.04558620  0.48270712  0.45793852    -0.73800
O109        O  0.95633011  0.01752002  0.45480197    -0.73700
O110        O  0.95348652  0.01793376  0.04229602    -0.73700
O111        O  0.96181427  0.07742559  0.00149423    -0.73700
O112        O  0.94759136  0.45748996  0.49485456    -0.73800
Ni113      Ni  0.04786665  0.48103587  0.50195417     1.25400
Ni114      Ni  0.95135231  0.01905028  0.99826656     1.25400
C115        C  0.99008539  0.42052622  0.49556001     0.88500
C116        C  0.00925282  0.07947538  0.00434439     0.88400
C117        C  0.99794694  0.00014689  0.05845495     0.88500
C118        C  0.00102566  0.50015551  0.44179500     0.88600
O119        O  0.05102700  0.04011321  0.25443116    -0.73700
O120        O  0.03595188  0.42092433  0.24864382    -0.73700
O121        O  0.04255026  0.48005156  0.20705141    -0.73800
O122        O  0.04402688  0.48088932  0.29489949    -0.73800
O123        O  0.95435858  0.01595453  0.29275135    -0.73700
O124        O  0.95314526  0.01555078  0.20491989    -0.73700
O125        O  0.94605196  0.45602533  0.24566235    -0.73700
O126        O  0.96111591  0.07519186  0.25142623    -0.73800
Ni127      Ni  0.04659537  0.47914536  0.25116515     1.25400
Ni128      Ni  0.95050240  0.01688840  0.24866424     1.25400
C129        C  0.00862171  0.07711464  0.25377441     0.88500
C130        C  0.98848044  0.41899320  0.24644809     0.88400
C131        C  0.99753950  0.49781728  0.19133604     0.88500
C132        C  0.99939675  0.99875818  0.30852300     0.88600
O133        O  0.53965905  0.41909748  0.49918889    -0.73700
O134        O  0.55492340  0.03768342  0.50387941    -0.73700
O135        O  0.54651684  0.48030913  0.04589919    -0.73800
O136        O  0.54720987  0.47848771  0.45822740    -0.73800
O137        O  0.45704940  0.01291561  0.45415957    -0.73700
O138        O  0.45794629  0.01526526  0.04206825    -0.73700
O139        O  0.46518945  0.07409729  0.00046742    -0.73700
O140        O  0.44976420  0.45417651  0.49593441    -0.73800
Ni141      Ni  0.55046414  0.47735373  0.50226104     1.25400
Ni142      Ni  0.45453235  0.01588721  0.99804081     1.25400
C143        C  0.49215539  0.41715353  0.49644638     0.88500
C144        C  0.51264321  0.07606634  0.00272015     0.88400
C145        C  0.50266367  0.99754713  0.05801191     0.88500
C146        C  0.50235037  0.49574023  0.44232277     0.88600
O147        O  0.55266540  0.03726145  0.25362253    -0.73700
O148        O  0.53778656  0.41836808  0.24966261    -0.73700
O149        O  0.54517950  0.47724736  0.20827492    -0.73800
O150        O  0.54527046  0.47857990  0.29593618    -0.73800
O151        O  0.45535420  0.01306624  0.29180978    -0.73700
O152        O  0.45555498  0.51207485  0.20545619    -0.73700
O153        O  0.44786895  0.45330092  0.24631011    -0.73700
O154        O  0.46276226  0.07220583  0.25029964    -0.73800
Ni155      Ni  0.54833638  0.47669548  0.25228266     1.25400
Ni156      Ni  0.45217035  0.51396721  0.24917826     1.25400
C157        C  0.51020643  0.07425395  0.25261832     0.88500
C158        C  0.49032683  0.41634841  0.24703363     0.88400
C159        C  0.50049039  0.49468616  0.19227735     0.88500
C160        C  0.50048599  0.49591161  0.30919675     0.88600
C161        C  0.54864267  0.98892918  0.36011483     0.24300
C162        C  0.50095074  0.49577252  0.34327898    -0.23800
C163        C  0.45345951  0.50172620  0.35802866     0.19200
C164        C  0.45398491  0.50165123  0.39002841     0.24300
C165        C  0.50206468  0.49550212  0.40826117    -0.23700
C166        C  0.54911236  0.98871954  0.39210403     0.19200
F167        F  0.59625465  0.98330916  0.40864334    -0.13700
F168        F  0.59551029  0.98340241  0.34716168    -0.16000
F169        F  0.40731692  0.50671616  0.40304856    -0.16000
F170        F  0.40643818  0.50659113  0.34151245    -0.13700
C171        C  0.54800723  0.47003949  0.14267721     0.24300
C172        C  0.50077677  0.49514607  0.15818432    -0.23800
C173        C  0.45497385  0.02179384  0.13945174     0.19200
C174        C  0.45551052  0.02280442  0.10757399     0.24300
C175        C  0.50145700  0.49704337  0.09322876    -0.23700
C176        C  0.54834461  0.47094344  0.11073623     0.19200
F177        F  0.59478390  0.44556956  0.09703929    -0.13700
F178        F  0.59414512  0.44398691  0.15829039    -0.16000
F179        F  0.40993108  0.04994933  0.09203156    -0.16000
F180        F  0.40889088  0.04805675  0.15317532    -0.13700
C181        C  0.95453847  0.02750020  0.35851754     0.24300
C182        C  0.00018231  0.99948639  0.34268009    -0.23800
C183        C  0.04744930  0.47408349  0.35997349     0.19200
C184        C  0.04808976  0.47482567  0.39203946     0.24300
C185        C  0.00127747  0.50061851  0.40769922    -0.23700
C186        C  0.95532058  0.02813444  0.39054372     0.19200
F187        F  0.91047194  0.05636451  0.40459570    -0.13700
F188        F  0.90899739  0.05504740  0.34313886    -0.16000
F189        F  0.09469797  0.44963984  0.40761581    -0.16000
F190        F  0.09334969  0.44781505  0.34608046    -0.13700
C191        C  0.04081677  0.46902354  0.10916057     0.24300
C192        C  0.99740821  0.99944442  0.09248585    -0.23800
C193        C  0.95262863  0.02905697  0.10839874     0.19200
C194        C  0.95271232  0.02863148  0.14040763     0.24300
C195        C  0.99695232  0.49834994  0.15724180    -0.23700
C196        C  0.04113739  0.46832869  0.14111381     0.19200
F197        F  0.08455381  0.43736401  0.15613522    -0.13700
F198        F  0.08388123  0.43853031  0.09472025    -0.16000
F199        F  0.90905230  0.05853812  0.15467851    -0.16000
F200        F  0.90886154  0.05922424  0.09311688    -0.13700
C201        C  0.55567233  0.23273576  0.36341540     0.24300
C202        C  0.51440134  0.22667317  0.34331966    -0.23800
C203        C  0.46216073  0.23895205  0.35415267     0.19200
C204        C  0.45137686  0.25710954  0.38397648     0.24300
C205        C  0.49255901  0.26321210  0.40411073    -0.23700
C206        C  0.54494473  0.25065476  0.39338181     0.19200
F207        F  0.58620946  0.25575584  0.41174434    -0.13700
F208        F  0.60662050  0.22181757  0.35415842    -0.16000
F209        F  0.40026239  0.26826768  0.39302957    -0.16000
F210        F  0.42085515  0.23354179  0.33597521    -0.13700
C211        C  0.45615074  0.24708483  0.10308891     0.24300
C212        C  0.50987087  0.22754555  0.09389431    -0.23800
C213        C  0.55244903  0.22546678  0.11571682     0.19200
C214        C  0.54171821  0.24331204  0.14558827     0.24300
C215        C  0.48802860  0.26354636  0.15470228    -0.23700
C216        C  0.44539928  0.26490802  0.13304412     0.19200
F217        F  0.39295479  0.28374865  0.14060353    -0.13700
F218        F  0.41351374  0.24962842  0.08310339    -0.16000
F219        F  0.58450439  0.24011898  0.16559438    -0.16000
F220        F  0.60497584  0.20608970  0.10836613    -0.13700
C221        C  0.75530995  0.27542790  0.22608090     0.24300
C222        C  0.80023636  0.25165280  0.24568928    -0.23800
C223        C  0.79445841  0.22130844  0.26657408     0.19200
C224        C  0.74510693  0.21529292  0.26807335     0.24300
C225        C  0.70006796  0.23930581  0.24866936    -0.23700
C226        C  0.70584784  0.26942669  0.22761397     0.19200
F227        F  0.66388351  0.29271800  0.20807420    -0.13700
F228        F  0.75917736  0.30411225  0.20498980    -0.16000
F229        F  0.74128851  0.18671980  0.28925290    -0.16000
F230        F  0.83622191  0.19801843  0.28622702    -0.13700
C231        C  0.24878481  0.20372755  0.25807783     0.24300
C232        C  0.19966766  0.24138292  0.25295256    -0.23800
C233        C  0.20181036  0.28478533  0.24670540     0.19200
C234        C  0.25155305  0.29015839  0.24511341     0.24300
C235        C  0.30062093  0.25227958  0.24965851    -0.23700
C236        C  0.29851713  0.20907834  0.25638508     0.19200
F237        F  0.34458667  0.17142058  0.26070864    -0.13700
F238        F  0.24908324  0.16115713  0.26421061    -0.16000
F239        F  0.25138112  0.33290969  0.23956362    -0.16000
F240        F  0.15577819  0.32254617  0.24258743    -0.13700
C241        C  0.79359159  0.22823544  0.02125701     0.24300
C242        C  0.80043133  0.25542021  0.49926768    -0.23800
C243        C  0.75686282  0.27533803  0.47793911     0.19200
C244        C  0.70803131  0.26833599  0.47941023     0.24300
C245        C  0.70021849  0.24345348  0.00217296    -0.23700
C246        C  0.74425587  0.22213402  0.02297495     0.19200
F247        F  0.73958390  0.19584648  0.04540823    -0.13700
F248        F  0.83458632  0.20767260  0.04211319    -0.16000
F249        F  0.66798304  0.28669658  0.45758283    -0.16000
F250        F  0.76174269  0.30074027  0.45502742    -0.13700
C251        C  0.20263892  0.28386850  0.49051350     0.24300
C252        C  0.19969948  0.24315723  0.99898045    -0.23800
C253        C  0.24880313  0.20537490  0.00375433     0.19200
C254        C  0.29857470  0.21071371  0.00208566     0.24300
C255        C  0.30151681  0.25238311  0.49587762    -0.23700
C256        C  0.25246979  0.28894192  0.48841355     0.19200
F257        F  0.25225638  0.33026073  0.47955264    -0.13700
F258        F  0.15667629  0.32050600  0.48368450    -0.16000
F259        F  0.34462552  0.17308969  0.00655267    -0.16000
F260        F  0.24900372  0.16276549  0.00970162    -0.13700
C261        C  0.96021340  0.23573559  0.35633933     0.24300
C262        C  0.00903199  0.23198915  0.34388946    -0.23800
C263        C  0.04628191  0.24697923  0.36202690     0.19200
C264        C  0.03522990  0.26486549  0.39187209     0.24300
C265        C  0.98668534  0.26817168  0.40444335    -0.23700
C266        C  0.94919695  0.25358304  0.38624246     0.19200
F267        F  0.90237064  0.25520413  0.39757900    -0.13700
F268        F  0.92330350  0.22129946  0.33987269    -0.16000
F269        F  0.07211919  0.27939401  0.40829132    -0.16000
F270        F  0.09329077  0.24519560  0.35082855    -0.13700
C271        C  0.05311005  0.21969718  0.11749471     0.24300
C272        C  0.01149508  0.23277469  0.09423745    -0.23800
C273        C  0.95949091  0.26320736  0.10184658     0.19200
C274        C  0.94929883  0.27993995  0.13197576     0.24300
C275        C  0.99080975  0.26677443  0.15526370    -0.23700
C276        C  0.04295082  0.23659745  0.14765926     0.19200
F277        F  0.08402885  0.22233907  0.16949135    -0.13700
F278        F  0.10349765  0.18970823  0.11125437    -0.16000
F279        F  0.89884283  0.30986564  0.13815590    -0.16000
F280        F  0.91847270  0.27792538  0.08002677    -0.13700
O281        O  0.14578261  0.20341987  0.51755540    -0.80100
O282        O  0.89523968  0.23261459  0.50916427    -0.64800
O283        O  0.04022945  0.21357366  0.99170949    -1.11400
C284        C  0.98263187  0.37629105  0.99371329     1.07100
O285        O  0.85313587  0.29683523  0.98288863    -0.78000
O286        O  0.92807966  0.29883842  0.94530499    -0.65600
Ni287      Ni  0.09725044  0.16969865  0.51776901     1.34900
C288        C  0.97598281  0.28547417  0.93648969     0.85500
O289        O  0.97823693  0.15813742  0.49472678    -0.78600
O290        O  0.05897521  0.12743928  0.51962700    -0.88900
C291        C  0.85252339  0.26230477  0.99681419     0.85100
O292        O  0.06924640  0.20272908  0.55472907    -0.67100
O293        O  0.93926986  0.37319628  0.98101356    -0.86300
C294        C  0.02096794  0.21591329  0.56295001     0.85900
C295        C  0.01600050  0.12407415  0.50649278     1.07400
H296        H  0.95434880  0.29640512  0.52850095     0.39300
O297        O  0.95930510  0.28630195  0.50725200    -1.09000
O298        O  0.01620500  0.28487423  0.95450799    -0.65700
Ni299      Ni  0.03129259  0.27787606  0.99802378     1.26300
O300        O  0.98156314  0.21558316  0.54465411    -0.65900
O301        O  0.02094605  0.34187551  0.00474427    -0.78200
C302        C  0.14724684  0.23672825  0.50258353     0.85300
O303        O  0.10414264  0.26743110  0.98979461    -0.65400
Ni304      Ni  0.90139683  0.33069114  0.98275960     1.27400
Ni305      Ni  0.96797326  0.22205884  0.50114465     1.26100
H306        H  0.04552970  0.20361408  0.97043217     0.39800
O307        O  0.14449288  0.19954247  0.76572448    -0.80100
O308        O  0.89300332  0.23052085  0.75725885    -0.64800
O309        O  0.03871924  0.21177132  0.74215607    -1.11400
C310        C  0.98169393  0.37409889  0.74496292     1.06700
O311        O  0.85134496  0.29549300  0.73244693    -0.78000
O312        O  0.92842741  0.29624387  0.69575826    -0.65600
Ni313      Ni  0.09452740  0.16763777  0.76670922     1.34900
C314        C  0.97673552  0.28353260  0.68764065     0.85500
O315        O  0.97645204  0.15679018  0.74232356    -0.78600
O316        O  0.05475315  0.12683219  0.76944319    -0.88900
C317        C  0.85060604  0.26014678  0.74536554     0.85100
O318        O  0.06716650  0.20204792  0.80322555    -0.67100
O319        O  0.93911919  0.37072899  0.73130998    -0.86300
C320        C  0.01910776  0.21469093  0.81171226     0.85900
C321        C  0.01304612  0.12300009  0.75503001     1.07400
H322        H  0.95053250  0.29428567  0.77857832     0.39300
O323        O  0.95656168  0.28483073  0.75728724    -1.09000
O324        O  0.01604531  0.28396425  0.70607575    -0.65700
Ni325      Ni  0.02956974  0.27603228  0.74956040     1.26300
O326        O  0.97995862  0.21274050  0.79361242    -0.65900
O327        O  0.01892079  0.33999066  0.75706408    -0.78200
C328        C  0.14530864  0.23528962  0.75339666     0.85300
O329        O  0.10273901  0.26605860  0.74252660    -0.65400
Ni330      Ni  0.90035456  0.32878792  0.73275457     1.27400
Ni331      Ni  0.96587219  0.22062934  0.75001708     1.26100
H332        H  0.04453019  0.20225775  0.72094442     0.39800
O333        O  0.64781585  0.20056092  0.51810666    -0.80100
O334        O  0.39688125  0.22827687  0.50616687    -0.64800
O335        O  0.54257416  0.21105529  0.99152313    -1.11400
C336        C  0.48525094  0.37330241  0.99407072     1.06700
O337        O  0.35480840  0.29522647  0.98146473    -0.78000
O338        O  0.43186189  0.29506923  0.94460262    -0.65600
Ni339      Ni  0.59955944  0.16624649  0.51695312     1.34900
C340        C  0.48001377  0.28184987  0.93618234     0.85500
O341        O  0.48117315  0.15416699  0.49245476    -0.78600
O342        O  0.56170245  0.12343573  0.51759069    -0.88900
C343        C  0.35373851  0.25986998  0.99420976     0.85100
O344        O  0.57021713  0.19820126  0.55389114    -0.67100
O345        O  0.44298861  0.36997406  0.97998385    -0.86300
C346        C  0.52185136  0.21083236  0.56190391     0.85900
C347        C  0.51880822  0.12009009  0.50432065     1.07400
H348        H  0.45468752  0.29224048  0.52758367     0.39300
O349        O  0.46078991  0.28255546  0.50632889    -1.09000
O350        O  0.51932822  0.28263418  0.95455506    -0.65700
Ni351      Ni  0.53296562  0.27526353  0.99826210     1.26300
O352        O  0.48280452  0.21095292  0.54308029    -0.65900
O353        O  0.52248306  0.33902106  0.00584156    -0.78200
C354        C  0.64887945  0.23484236  0.50403466     0.85300
O355        O  0.60574891  0.26528729  0.99082427    -0.65400
Ni356      Ni  0.40407071  0.32811705  0.98152851     1.27400
Ni357      Ni  0.47022020  0.21821021  0.49944907     1.26100
H358        H  0.54883273  0.20129419  0.97029365     0.39800
O359        O  0.64598494  0.19755367  0.76281560    -0.80100
O360        O  0.39465306  0.22775403  0.75774285    -0.64800
O361        O  0.53962363  0.20951764  0.74052050    -1.11400
C362        C  0.48288553  0.37145717  0.74465425     1.06700
O363        O  0.35230160  0.29336293  0.73361288    -0.78000
O364        O  0.42825189  0.29306172  0.69564969    -0.65600
Ni365      Ni  0.59637329  0.16542231  0.76462610     1.34900
C366        C  0.47612847  0.28092023  0.68694352     0.85500
O367        O  0.47791739  0.15407480  0.74165630    -0.78600
O368        O  0.55710759  0.12428804  0.76799240    -0.88900
C369        C  0.35181463  0.25810127  0.74677067     0.85100
O370        O  0.57025824  0.19957763  0.80159593    -0.67100
O371        O  0.44055873  0.36798922  0.73066148    -0.86300
C372        C  0.52266627  0.21137026  0.81070874     0.85900
C373        C  0.51501664  0.12030611  0.75413423     1.07400
H374        H  0.45262311  0.29135102  0.77831973     0.39300
O375        O  0.45804655  0.28212586  0.75695502    -1.09000
O376        O  0.51516838  0.28300543  0.70502475    -0.65700
Ni377      Ni  0.53048888  0.27368970  0.74837467     1.26300
O378        O  0.48324983  0.20931326  0.79288386    -0.65900
O379        O  0.51994966  0.33731615  0.75672018    -0.78200
C380        C  0.64600404  0.23368507  0.75061530     0.85300
O381        O  0.60297587  0.26443994  0.74031817    -0.65400
Ni382      Ni  0.40147707  0.32626524  0.73280669     1.27400
Ni383      Ni  0.46725478  0.21797706  0.74944641     1.26100
H384        H  0.54481866  0.20047056  0.71911920     0.39800
O385        O  0.03593023  0.42374460  0.99837857    -0.73700
O386        O  0.05169897  0.04251243  0.00550480    -0.73700
O387        O  0.04365006  0.48184063  0.54553842    -0.73800
O388        O  0.04444872  0.48317076  0.95774104    -0.73800
O389        O  0.95561869  0.01782440  0.95470199    -0.73700
O390        O  0.95373615  0.01716903  0.54227686    -0.73700
O391        O  0.96252690  0.07675656  0.50185086    -0.73700
O392        O  0.94604348  0.45880299  0.99476303    -0.73800
Ni393      Ni  0.04659109  0.48193426  0.00177744     1.25400
Ni394      Ni  0.95180696  0.01855361  0.49830588     1.25400
C395        C  0.98849336  0.42176469  0.99558128     0.88500
C396        C  0.00999154  0.07870480  0.50484547     0.88400
C397        C  0.99811481  0.99931517  0.55848062     0.88500
C398        C  0.99991534  0.50066888  0.94157691     0.88600
O399        O  0.04967683  0.04077074  0.75402065    -0.73700
O400        O  0.03537713  0.42137624  0.74882518    -0.73700
O401        O  0.04247749  0.48036306  0.70734649    -0.73800
O402        O  0.04321524  0.48151966  0.79501314    -0.73800
O403        O  0.95348525  0.01640461  0.79264347    -0.73700
O404        O  0.95231318  0.01552636  0.70477635    -0.73700
O405        O  0.94549014  0.45650201  0.74561424    -0.73700
O406        O  0.95971561  0.07554556  0.75114562    -0.73800
Ni407      Ni  0.04604520  0.47966679  0.75137639     1.25400
Ni408      Ni  0.94956785  0.01710898  0.74852732     1.25400
C409        C  0.00710752  0.07765672  0.75339995     0.88500
C410        C  0.98788156  0.41944920  0.74647933     0.88400
C411        C  0.99765521  0.49794285  0.69147382     0.88500
C412        C  0.99860194  0.99960798  0.80841883     0.88600
O413        O  0.53891273  0.42051565  0.99926967    -0.73700
O414        O  0.55509060  0.03906870  0.00382696    -0.73700
O415        O  0.54727657  0.47873932  0.54597348    -0.73800
O416        O  0.54662458  0.47943938  0.95814240    -0.73800
O417        O  0.45763512  0.01378696  0.95438818    -0.73700
O418        O  0.45736375  0.01408088  0.54184267    -0.73700
O419        O  0.46505872  0.07292570  0.50045562    -0.73700
O420        O  0.44902360  0.45568228  0.99599611    -0.73800
Ni421      Ni  0.54979671  0.47868839  0.00217078     1.25400
Ni422      Ni  0.45402739  0.01479552  0.49782009     1.25400
C423        C  0.49138852  0.41863949  0.99648705     0.88500
C424        C  0.51260423  0.07476393  0.50289861     0.88400
C425        C  0.50203084  0.99649185  0.55784671     0.88500
C426        C  0.50177988  0.49653165  0.94220797     0.88600
O427        O  0.55170208  0.03790844  0.75388243    -0.73700
O428        O  0.53682292  0.41857483  0.74930844    -0.73700
O429        O  0.54495507  0.47779954  0.70839723    -0.73800
O430        O  0.54459834  0.47818776  0.79586759    -0.73800
O431        O  0.45483378  0.01331498  0.79202120    -0.73700
O432        O  0.45537561  0.51292285  0.70541426    -0.73700
O433        O  0.44695627  0.45379058  0.74579324    -0.73700
O434        O  0.46177819  0.07273055  0.75057969    -0.73800
Ni435      Ni  0.54780648  0.47680918  0.75232231     1.25400
Ni436      Ni  0.45167825  0.51430560  0.74911650     1.25400
C437        C  0.50916635  0.07485067  0.75291055     0.88500
C438        C  0.48925237  0.41672952  0.74658224     0.88400
C439        C  0.50041163  0.49539991  0.69233098     0.88500
C440        C  0.49981118  0.49551032  0.80909280     0.88600
C441        C  0.54897005  0.98813486  0.86009183     0.24300
C442        C  0.50033893  0.49533676  0.84314744    -0.23800
C443        C  0.45261955  0.50242643  0.85797270     0.19200
C444        C  0.45316722  0.50269196  0.88997749     0.24300
C445        C  0.50149980  0.49577143  0.90813386    -0.23700
C446        C  0.54967711  0.98823281  0.89211243     0.19200
F447        F  0.59716752  0.98208265  0.90847211    -0.13700
F448        F  0.59601319  0.98142634  0.84694811    -0.16000
F449        F  0.40620470  0.50898233  0.90307680    -0.16000
F450        F  0.40528274  0.50825515  0.84153910    -0.13700
C451        C  0.54861929  0.47070531  0.64297527     0.24300
C452        C  0.50106067  0.49564533  0.65826366    -0.23800
C453        C  0.45340738  0.02051008  0.63917894     0.19200
C454        C  0.45408730  0.02113043  0.60726687     0.24300
C455        C  0.50220336  0.49633098  0.59330305    -0.23700
C456        C  0.54919799  0.47104901  0.61102370     0.19200
F457        F  0.59604682  0.44616012  0.59755900    -0.13700
F458        F  0.59489148  0.44544302  0.65881807    -0.16000
F459        F  0.40788631  0.04662534  0.59148137    -0.16000
F460        F  0.40648398  0.04518326  0.65262814    -0.13700
C461        C  0.95404370  0.02887857  0.85843222     0.24300
C462        C  0.99953076  0.00060763  0.84257914    -0.23800
C463        C  0.04540348  0.47233726  0.85973421     0.19200
C464        C  0.04589988  0.47275852  0.89176657     0.24300
C465        C  0.00018758  0.50091002  0.90751785    -0.23700
C466        C  0.95479581  0.02939610  0.89046369     0.19200
F467        F  0.91015541  0.05792557  0.90456040    -0.13700
F468        F  0.90875051  0.05681972  0.84305457    -0.16000
F469        F  0.09105303  0.44474624  0.90721487    -0.16000
F470        F  0.09018828  0.44395733  0.84568562    -0.13700
C471        C  0.04256102  0.46854496  0.60966125     0.24300
C472        C  0.99733805  0.99867299  0.59247298    -0.23800
C473        C  0.95254443  0.02854356  0.60825999     0.19200
C474        C  0.95234253  0.02823038  0.64024412     0.24300
C475        C  0.99763912  0.49808289  0.65742112    -0.23700
C476        C  0.04238250  0.46823120  0.64161487     0.19200
F477        F  0.08590784  0.43788710  0.65696227    -0.13700
F478        F  0.08627346  0.43843964  0.59553676    -0.16000
F479        F  0.90868667  0.05835912  0.65440560    -0.16000
F480        F  0.90907677  0.05890275  0.59288130    -0.13700
C481        C  0.55455280  0.23050348  0.86384248     0.24300
C482        C  0.51222206  0.22827373  0.84304209    -0.23800
C483        C  0.45917214  0.24418291  0.85321986     0.19200
C484        C  0.44871684  0.26207843  0.88313805     0.24300
C485        C  0.49096517  0.26454262  0.90393192    -0.23700
C486        C  0.54412015  0.24825225  0.89384579     0.19200
F487        F  0.58657479  0.24905904  0.91296773    -0.13700
F488        F  0.60643129  0.21554683  0.85533865    -0.16000
F489        F  0.39682324  0.27674506  0.89158534    -0.16000
F490        F  0.41673801  0.24284024  0.83426551    -0.13700
C491        C  0.45620185  0.24711322  0.60307240     0.24300
C492        C  0.51008699  0.22685202  0.59420836    -0.23800
C493        C  0.55245278  0.22434119  0.61627705     0.19200
C494        C  0.54134737  0.24243533  0.64608074     0.24300
C495        C  0.48748330  0.26335214  0.65484437    -0.23700
C496        C  0.44508676  0.26514969  0.63294217     0.19200
F497        F  0.39251073  0.28468745  0.64017452    -0.13700
F498        F  0.41373727  0.25021392  0.58282759    -0.16000
F499        F  0.58389887  0.23874727  0.66638116    -0.16000
F500        F  0.60509084  0.20422450  0.60924451    -0.13700
C501        C  0.75349279  0.27681558  0.72664714     0.24300
C502        C  0.79827530  0.25319501  0.74639198    -0.23800
C503        C  0.79247305  0.22276722  0.76719905     0.19200
C504        C  0.74324207  0.21644927  0.76845113     0.24300
C505        C  0.69838926  0.24020815  0.74885655    -0.23700
C506        C  0.70418289  0.27043474  0.72788694     0.19200
F507        F  0.66243771  0.29335553  0.70810224    -0.13700
F508        F  0.75744051  0.30557344  0.70563154    -0.16000
F509        F  0.73933697  0.18780558  0.78955495    -0.16000
F510        F  0.83411630  0.19963548  0.78696953    -0.13700
C511        C  0.24727021  0.20307428  0.75586313     0.24300
C512        C  0.19817641  0.24116448  0.75195058    -0.23800
C513        C  0.20028464  0.28498227  0.74692520     0.19200
C514        C  0.25000025  0.29046746  0.74549437     0.24300
C515        C  0.29907494  0.25227570  0.74898085    -0.23700
C516        C  0.29700631  0.20855522  0.75438796     0.19200
F517        F  0.34309005  0.17060514  0.75765763    -0.13700
F518        F  0.24747281  0.16004171  0.76060235    -0.16000
F519        F  0.24983078  0.33364744  0.74130207    -0.16000
F520        F  0.15423143  0.32304866  0.74402471    -0.13700
C521        C  0.79368193  0.22863674  0.52229834     0.24300
C522        C  0.80017837  0.25584340  0.99872343    -0.23800
C523        C  0.75614061  0.27718052  0.97796654     0.19200
C524        C  0.70689938  0.27101571  0.97963769     0.24300
C525        C  0.70115232  0.24167815  0.50246897    -0.23700
C526        C  0.74470609  0.22179079  0.52385603     0.19200
F527        F  0.73984158  0.19626043  0.54669722    -0.13700
F528        F  0.83411987  0.20973471  0.54382506    -0.16000
F529        F  0.66620601  0.29121876  0.95853901    -0.16000
F530        F  0.76087965  0.30323053  0.95540350    -0.13700
C531        C  0.20186623  0.28633710  0.99221344     0.24300
C532        C  0.20026386  0.24208093  0.50009483    -0.23800
C533        C  0.24927396  0.20534434  0.50720665     0.19200
C534        C  0.29910951  0.21040771  0.50512994     0.24300
C535        C  0.30077363  0.25396430  0.99552631    -0.23700
C536        C  0.25164974  0.29164725  0.99044171     0.19200
F537        F  0.25141504  0.33425143  0.98444103    -0.13700
F538        F  0.15580099  0.32405668  0.98806374    -0.16000
F539        F  0.34501747  0.17372154  0.51195200    -0.16000
F540        F  0.24937308  0.16394291  0.51583546    -0.13700
C541        C  0.95882441  0.23728389  0.85603262     0.24300
C542        C  0.00806299  0.23253855  0.84368031    -0.23800
C543        C  0.04581980  0.24684225  0.86185774     0.19200
C544        C  0.03492423  0.26488785  0.89168582     0.24300
C545        C  0.98593321  0.26921391  0.90415747    -0.23700
C546        C  0.94792340  0.25535238  0.88588709     0.19200
F547        F  0.90062461  0.25791255  0.89708825    -0.13700
F548        F  0.92128035  0.22372101  0.83949868    -0.16000
F549        F  0.07248365  0.27845766  0.90819890    -0.16000
F550        F  0.09318871  0.24424015  0.85071761    -0.13700
C551        C  0.04977492  0.21719129  0.61860370     0.24300
C552        C  0.00954135  0.23273517  0.59490510    -0.23800
C553        C  0.95848783  0.26574576  0.60188010     0.19200
C554        C  0.94793400  0.28267178  0.63195141     0.24300
C555        C  0.98821445  0.26711061  0.65564380    -0.23700
C556        C  0.03933602  0.23432926  0.64863376     0.19200
F557        F  0.07906800  0.21781690  0.67092051    -0.13700
F558        F  0.09896123  0.18454991  0.61288808    -0.16000
F559        F  0.89867719  0.31520403  0.63770313    -0.16000
F560        F  0.91903391  0.28277055  0.57951947    -0.13700
O561        O  0.14697672  0.70172390  0.01463590    -0.80100
O562        O  0.89583840  0.73252091  0.00866081    -0.64800
O563        O  0.04022189  0.71290735  0.49259992    -1.11400
C564        C  0.98360532  0.87539205  0.49351850     1.07100
O565        O  0.85309290  0.79667554  0.48335943    -0.78000
O566        O  0.92859265  0.79744847  0.44557599    -0.65600
Ni567      Ni  0.09736797  0.66941657  0.01615781     1.34900
C568        C  0.97657143  0.78389451  0.43683811     0.85500
O569        O  0.97849289  0.65860519  0.99313219    -0.78600
O570        O  0.05791238  0.62827367  0.01921921    -0.88900
C571        C  0.85240809  0.76221832  0.49737615     0.85100
O572        O  0.07090636  0.70341796  0.05309516    -0.67100
O573        O  0.94024038  0.87230123  0.48074927    -0.86300
C574        C  0.02301244  0.71585260  0.06183185     0.85900
C575        C  0.01543554  0.62471780  0.00553151     1.07400
H576        H  0.95448319  0.79614701  0.02852292     0.39300
O577        O  0.95952725  0.78651763  0.00719894    -1.09000
O578        O  0.01665050  0.78355115  0.45488125    -0.65700
Ni579      Ni  0.03156460  0.77710205  0.49842392     1.26300
O580        O  0.98349407  0.71456309  0.04386176    -0.65900
O581        O  0.02165910  0.84103439  0.50477403    -0.78200
C582        C  0.14762537  0.73673396  0.00125047     0.85300
O583        O  0.10443121  0.76603329  0.48997578    -0.65400
Ni584      Ni  0.90183710  0.83014084  0.48283996     1.27400
Ni585      Ni  0.96836392  0.72235296  0.00039127     1.26100
H586        H  0.04566440  0.70261175  0.47138183     0.39800
O587        O  0.14587579  0.69991396  0.26704526    -0.80100
O588        O  0.89485961  0.72981022  0.25703746    -0.64800
O589        O  0.04081900  0.71105425  0.24230674    -1.11400
C590        C  0.98289581  0.87356986  0.24464495     1.06700
O591        O  0.85361233  0.79375626  0.23124682    -0.78000
O592        O  0.93123309  0.79503530  0.19519778    -0.65600
Ni593      Ni  0.09662178  0.66706615  0.26699608     1.34900
C594        C  0.97958119  0.78241894  0.18716453     0.85500
O595        O  0.97831511  0.65599345  0.24263540    -0.78600
O596        O  0.05756544  0.62543953  0.26881523    -0.88900
C597        C  0.85260162  0.75889700  0.24464663     0.85100
O598        O  0.06858287  0.70035115  0.30371546    -0.67100
O599        O  0.94040106  0.87004117  0.23098231    -0.86300
C600        C  0.02037505  0.71337678  0.31199928     0.85900
C601        C  0.01519446  0.62200749  0.25496979     1.07400
H602        H  0.95198578  0.79382641  0.27809216     0.39300
O603        O  0.95829658  0.78411188  0.25685768    -1.09000
O604        O  0.01869835  0.78278974  0.20578948    -0.65700
Ni605      Ni  0.03140130  0.77543208  0.24940419     1.26300
O606        O  0.98108362  0.71257367  0.29362966    -0.65900
O607        O  0.02039227  0.83950561  0.25662332    -0.78200
C608        C  0.14695971  0.73539079  0.25447936     0.85300
O609        O  0.10471381  0.76557632  0.24281128    -0.65400
Ni610      Ni  0.90220255  0.82757684  0.23200901     1.27400
Ni611      Ni  0.96779415  0.71986055  0.24996149     1.26100
H612        H  0.04690877  0.70143184  0.22103434     0.39800
O613        O  0.64739895  0.70153733  0.01745231    -0.80100
O614        O  0.39642759  0.72970490  0.00648431    -0.64800
O615        O  0.54330127  0.70924667  0.49185253    -1.11400
C616        C  0.48546059  0.87181970  0.49347174     1.06700
O617        O  0.35630277  0.79194608  0.47982641    -0.78000
O618        O  0.43353106  0.79395261  0.44388141    -0.65600
Ni619      Ni  0.59896858  0.66759681  0.01679531     1.34900
C620        C  0.48183939  0.78063674  0.43572032     0.85500
O621        O  0.48056078  0.65556074  0.99262935    -0.78600
O622        O  0.56089165  0.62514538  0.01799547    -0.88900
C623        C  0.35469327  0.75765449  0.49364754     0.85100
O624        O  0.57006045  0.70004950  0.05367518    -0.67100
O625        O  0.44268896  0.86860971  0.47998280    -0.86300
C626        C  0.52177988  0.71251433  0.06179747     0.85900
C627        C  0.51805963  0.62166053  0.00478767     1.07400
H628        H  0.45482637  0.79347995  0.02789902     0.39300
O629        O  0.46049883  0.78396083  0.00659049    -1.09000
O630        O  0.52125431  0.78014103  0.45438156    -0.65700
Ni631      Ni  0.53370233  0.77362780  0.49816013     1.26300
O632        O  0.48266247  0.71221052  0.04317370    -0.65900
O633        O  0.52305384  0.83756144  0.50508656    -0.78200
C634        C  0.64847282  0.73591325  0.00352348     0.85300
O635        O  0.60664873  0.76359387  0.49121277    -0.65400
Ni636      Ni  0.40463525  0.82599881  0.48080490     1.27400
Ni637      Ni  0.46968629  0.71963310  0.99959626     1.26100
H638        H  0.54969830  0.69909320  0.47068842     0.39800
O639        O  0.64780964  0.69593747  0.26184145    -0.80100
O640        O  0.39628036  0.72731569  0.25811085    -0.64800
O641        O  0.54101164  0.70881717  0.24038451    -1.11400
C642        C  0.48421391  0.87080435  0.24435079     1.06700
O643        O  0.35383040  0.79273287  0.23378498    -0.78000
O644        O  0.42981616  0.79221515  0.19569074    -0.65600
Ni645      Ni  0.59785571  0.66437799  0.26424430     1.34900
C646        C  0.47763772  0.78051569  0.18697524     0.85500
O647        O  0.47911769  0.65344186  0.24186065    -0.78600
O648        O  0.55822790  0.62373787  0.26822319    -0.88900
C649        C  0.35340244  0.75768543  0.24721099     0.85100
O650        O  0.57254292  0.69881858  0.30122446    -0.67100
O651        O  0.44205685  0.86711600  0.23032430    -0.86300
C652        C  0.52499883  0.71086120  0.31045187     0.85900
C653        C  0.51599941  0.61977971  0.25456800     1.07400
H654        H  0.45410471  0.79078017  0.27826188     0.39300
O655        O  0.45957166  0.78149734  0.25690770    -1.09000
O656        O  0.51678407  0.78239964  0.20504750    -0.65700
Ni657      Ni  0.53197646  0.77305467  0.24839077     1.26300
O658        O  0.48536315  0.70878711  0.29282860    -0.65900
O659        O  0.52123304  0.83683130  0.25667566    -0.78200
C660        C  0.64773862  0.73248639  0.25018483     0.85300
O661        O  0.60457134  0.76380858  0.24055112    -0.65400
Ni662      Ni  0.40298859  0.82554396  0.23275363     1.27400
Ni663      Ni  0.46872501  0.71736184  0.24948583     1.26100
H664        H  0.54595036  0.69988115  0.21895869     0.39800
O665        O  0.03718062  0.92277271  0.49834296    -0.73700
O666        O  0.05195588  0.54184914  0.50572027    -0.73700
O667        O  0.04311313  0.98279835  0.04551691    -0.73800
O668        O  0.04596124  0.98263969  0.45803719    -0.73800
O669        O  0.95591323  0.51711046  0.45479261    -0.73700
O670        O  0.95245090  0.51870901  0.04212878    -0.73700
O671        O  0.96142713  0.57773822  0.00119932    -0.73700
O672        O  0.94731351  0.95787096  0.49456626    -0.73800
Ni673      Ni  0.04792732  0.98102308  0.50205088     1.25400
Ni674      Ni  0.95047571  0.51955732  0.99809092     1.25400
C675        C  0.98969900  0.92081689  0.49538055     0.88500
C676        C  0.00899661  0.57952874  0.00411846     0.88400
C677        C  0.99687216  0.50074585  0.05828140     0.88500
C678        C  0.00147036  0.00028919  0.44186658     0.88600
O679        O  0.05115885  0.53972055  0.25401737    -0.73700
O680        O  0.03617068  0.92113002  0.24868174    -0.73700
O681        O  0.04279738  0.98052109  0.20733875    -0.73800
O682        O  0.04399151  0.98102130  0.29509035    -0.73800
O683        O  0.95442102  0.51587586  0.29258209    -0.73700
O684        O  0.95292904  0.51532727  0.20478183    -0.73700
O685        O  0.94625720  0.95606059  0.24566865    -0.73700
O686        O  0.96127116  0.57497308  0.25117875    -0.73800
Ni687      Ni  0.04665405  0.97945669  0.25140606     1.25400
Ni688      Ni  0.95046882  0.51675262  0.24851975     1.25400
C689        C  0.00882750  0.57678738  0.25340995     0.88500
C690        C  0.98875320  0.91906480  0.24634453     0.88400
C691        C  0.99785751  0.99814428  0.19155173     0.88500
C692        C  0.99943734  0.49865421  0.30835554     0.88600
O693        O  0.53916207  0.91899763  0.49803701    -0.73700
O694        O  0.55488906  0.53805998  0.50537873    -0.73700
O695        O  0.54753667  0.98009846  0.04480642    -0.73800
O696        O  0.54672815  0.97806523  0.45681988    -0.73800
O697        O  0.45751219  0.51323468  0.45553633    -0.73700
O698        O  0.45694332  0.51545040  0.04311785    -0.73700
O699        O  0.46443553  0.57444962  0.00158506    -0.73700
O700        O  0.44928429  0.95423617  0.49489106    -0.73800
Ni701      Ni  0.55013616  0.97713166  0.50090240     1.25400
Ni702      Ni  0.45366805  0.51624191  0.99903324     1.25400
C703        C  0.49162366  0.91715691  0.49548588     0.88500
C704        C  0.51192805  0.57635834  0.00382626     0.88400
C705        C  0.50163752  0.49773441  0.05910939     0.88500
C706        C  0.50183758  0.99529851  0.44091415     0.88600
O707        O  0.55243759  0.53749878  0.25496229    -0.73700
O708        O  0.53781348  0.91815055  0.24846803    -0.73700
O709        O  0.54552223  0.97686019  0.20698145    -0.73800
O710        O  0.54506867  0.97854447  0.29459250    -0.73800
O711        O  0.45556662  0.51319617  0.29331097    -0.73700
O712        O  0.45591433  0.01189152  0.20402164    -0.73700
O713        O  0.44791681  0.95312943  0.24484024    -0.73700
O714        O  0.46251694  0.57237211  0.25166609    -0.73800
Ni715      Ni  0.54843307  0.97647629  0.25097112     1.25400
Ni716      Ni  0.45227947  0.01381232  0.24770204     1.25400
C717        C  0.50993482  0.57444160  0.25380921     0.88500
C718        C  0.49034076  0.91615079  0.24589730     0.88400
C719        C  0.50091910  0.99438690  0.19093535     0.88500
C720        C  0.50018888  0.99580462  0.30776617     0.88600
C721        C  0.54914544  0.48927016  0.36151385     0.24300
C722        C  0.50048165  0.99556667  0.34183536    -0.23800
C723        C  0.45293875  0.00148859  0.35652958     0.19200
C724        C  0.45340101  0.00131432  0.38854207     0.24300
C725        C  0.50149639  0.99502353  0.40682242    -0.23700
C726        C  0.54966106  0.48921919  0.39351960     0.19200
F727        F  0.59679940  0.48393943  0.41003884    -0.13700
F728        F  0.59597057  0.48371615  0.34850080    -0.16000
F729        F  0.40666663  0.00647066  0.40152017    -0.16000
F730        F  0.40595006  0.00643650  0.33994571    -0.13700
C731        C  0.54837012  0.96895147  0.14141988     0.24300
C732        C  0.50138220  0.99485678  0.15690023    -0.23800
C733        C  0.45391761  0.52118730  0.14068562     0.19200
C734        C  0.45426385  0.52212614  0.10876363     0.24300
C735        C  0.50242971  0.99687140  0.09206476    -0.23700
C736        C  0.54889320  0.96992492  0.10951272     0.19200
F737        F  0.59503663  0.94380762  0.09578727    -0.13700
F738        F  0.59404126  0.94205832  0.15702593    -0.16000
F739        F  0.40815009  0.54827345  0.09319572    -0.16000
F740        F  0.40749381  0.54655948  0.15439379    -0.13700
C741        C  0.95360388  0.52584978  0.35824431     0.24300
C742        C  0.00010175  0.49941676  0.34253794    -0.23800
C743        C  0.04688247  0.97250154  0.35994837     0.19200
C744        C  0.04767959  0.97316166  0.39201242     0.24300
C745        C  0.00171584  0.00066403  0.40780262    -0.23700
C746        C  0.95422985  0.52655578  0.39027697     0.19200
F747        F  0.90855419  0.55340054  0.40415930    -0.13700
F748        F  0.90725510  0.55170336  0.34272954    -0.16000
F749        F  0.09341267  0.94603847  0.40744918    -0.16000
F750        F  0.09187145  0.94460882  0.34587231    -0.13700
C751        C  0.04197277  0.96904664  0.10953109     0.24300
C752        C  0.99638276  0.49987318  0.09229169    -0.23800
C753        C  0.95189887  0.52964874  0.10835630     0.19200
C754        C  0.95220320  0.52893227  0.14036515     0.24300
C755        C  0.99754465  0.99850300  0.15745950    -0.23700
C756        C  0.04208038  0.96865460  0.14150105     0.19200
F757        F  0.08562111  0.93811541  0.15670985    -0.13700
F758        F  0.08533495  0.93867591  0.09526222    -0.16000
F759        F  0.90890065  0.55904623  0.15482165    -0.16000
F760        F  0.90829054  0.56028176  0.09324233    -0.13700
C761        C  0.55479469  0.73751188  0.36200503     0.24300
C762        C  0.51473189  0.72801357  0.34268474    -0.23800
C763        C  0.46359628  0.73703501  0.35415099     0.19200
C764        C  0.45273602  0.75510556  0.38393805     0.24300
C765        C  0.49280825  0.76428105  0.40339659    -0.23700
C766        C  0.54401462  0.75533089  0.39197971     0.19200
F767        F  0.58392134  0.76397347  0.40965652    -0.13700
F768        F  0.60450128  0.73003283  0.35196708    -0.16000
F769        F  0.40287069  0.76265265  0.39375321    -0.16000
F770        F  0.42365350  0.72801472  0.33674214    -0.13700
C771        C  0.45682798  0.75458817  0.10207019     0.24300
C772        C  0.51021578  0.72862500  0.09400690    -0.23800
C773        C  0.55259914  0.72019976  0.11681855     0.19200
C774        C  0.54205321  0.73763851  0.14679105     0.24300
C775        C  0.48873577  0.76374888  0.15483694    -0.23700
C776        C  0.44626895  0.77195504  0.13209345     0.19200
F777        F  0.39439642  0.79761569  0.13863750    -0.13700
F778        F  0.41460315  0.76432286  0.08082045    -0.16000
F779        F  0.58432468  0.72803396  0.16800184    -0.16000
F780        F  0.60451819  0.69457342  0.11034711    -0.13700
C781        C  0.75407417  0.77823313  0.22776656     0.24300
C782        C  0.80021305  0.75184952  0.24566566    -0.23800
C783        C  0.79561480  0.71866134  0.26471318     0.19200
C784        C  0.74641441  0.71227978  0.26599548     0.24300
C785        C  0.70025270  0.73880597  0.24824243    -0.23700
C786        C  0.70482389  0.77177043  0.22903036     0.19200
F787        F  0.66178996  0.79760086  0.21106293    -0.13700
F788        F  0.75635316  0.81022342  0.20870534    -0.16000
F789        F  0.74397730  0.68068968  0.28534231    -0.16000
F790        F  0.83845705  0.69269756  0.28274503    -0.13700
C791        C  0.24882325  0.70321224  0.25717216     0.24300
C792        C  0.19980456  0.74142269  0.25349366    -0.23800
C793        C  0.20198452  0.78529937  0.24872937     0.19200
C794        C  0.25172512  0.79056130  0.24683905     0.24300
C795        C  0.30068539  0.75214643  0.24985553    -0.23700
C796        C  0.29855804  0.70848287  0.25530992     0.19200
F797        F  0.34455971  0.67034349  0.25808303    -0.13700
F798        F  0.24892734  0.66022305  0.26193150    -0.16000
F799        F  0.25173609  0.83366035  0.24254355    -0.16000
F800        F  0.15601416  0.82356711  0.24650632    -0.13700
C801        C  0.79593973  0.72370511  0.01897065     0.24300
C802        C  0.80020789  0.75550223  0.49925268    -0.23800
C803        C  0.75662537  0.77567056  0.47798817     0.19200
C804        C  0.70777888  0.76871693  0.47938773     0.24300
C805        C  0.70089559  0.74263702  0.00203003    -0.23700
C806        C  0.74674647  0.71730436  0.02049789     0.19200
F807        F  0.74419900  0.68651392  0.04043763    -0.13700
F808        F  0.83863382  0.69895269  0.03757161    -0.16000
F809        F  0.66747682  0.78780320  0.45783817    -0.16000
F810        F  0.76148576  0.80130543  0.45521132    -0.13700
C811        C  0.20308838  0.78114973  0.48630177     0.24300
C812        C  0.20040887  0.74246230  0.99896314    -0.23800
C813        C  0.24954574  0.70450223  0.00305835     0.19200
C814        C  0.29923554  0.71004960  0.00157365     0.24300
C815        C  0.30162607  0.75168136  0.49495963    -0.23700
C816        C  0.25301951  0.78604105  0.48414513     0.19200
F817        F  0.25325910  0.82502213  0.47172203    -0.13700
F818        F  0.15765360  0.81555128  0.47579368    -0.16000
F819        F  0.34537176  0.67223314  0.00516849    -0.16000
F820        F  0.24982948  0.66155881  0.00813702    -0.13700
C821        C  0.95984829  0.73561503  0.35627396     0.24300
C822        C  0.00930459  0.73062967  0.34408225    -0.23800
C823        C  0.04725299  0.74435966  0.36249842     0.19200
C824        C  0.03616878  0.76244767  0.39229471     0.24300
C825        C  0.98684930  0.76724371  0.40457278    -0.23700
C826        C  0.94879406  0.75364441  0.38614544     0.19200
F827        F  0.90120911  0.75661470  0.39716852    -0.13700
F828        F  0.92220316  0.72242866  0.33953701    -0.16000
F829        F  0.07383280  0.77574447  0.40892344    -0.16000
F830        F  0.09496201  0.74130041  0.35158483    -0.13700
C831        C  0.05421670  0.72110701  0.11705791     0.24300
C832        C  0.01222201  0.73257788  0.09396091    -0.23800
C833        C  0.95962496  0.76136588  0.10171611     0.19200
C834        C  0.94919749  0.77794705  0.13184307     0.24300
C835        C  0.99109153  0.76635009  0.15499277    -0.23700
C836        C  0.04379967  0.73776977  0.14722809     0.19200
F837        F  0.08528070  0.72477429  0.16891238    -0.13700
F838        F  0.10532168  0.69293027  0.11067611    -0.16000
F839        F  0.89801770  0.80604655  0.13814236    -0.16000
F840        F  0.91814162  0.77458066  0.08004657    -0.13700
O841        O  0.14538355  0.70341422  0.51708099    -0.80100
O842        O  0.89486570  0.73301308  0.50943794    -0.64800
O843        O  0.04093681  0.71318842  0.99165175    -1.11400
C844        C  0.98392122  0.87570501  0.99393068     1.07100
O845        O  0.85367726  0.79710773  0.98363339    -0.78000
O846        O  0.92888501  0.79789921  0.94581155    -0.65600
Ni847      Ni  0.09681970  0.66976436  0.51741071     1.34900
C848        C  0.97669848  0.78485029  0.93690887     0.85500
O849        O  0.97751532  0.65844321  0.49481076    -0.78600
O850        O  0.05856730  0.62749390  0.51928750    -0.88900
C851        C  0.85315157  0.76214776  0.99708431     0.85100
O852        O  0.06936998  0.70235425  0.55462215    -0.67100
O853        O  0.94081646  0.87246301  0.98094905    -0.86300
C854        C  0.02115979  0.71567190  0.56298893     0.85900
C855        C  0.01540355  0.62424424  0.50635695     1.07400
H856        H  0.95374877  0.79684070  0.52850782     0.39300
O857        O  0.95880899  0.78665577  0.50727533    -1.09000
O858        O  0.01683871  0.78482569  0.95482967    -0.65700
Ni859      Ni  0.03210451  0.77742505  0.99833162     1.26300
O860        O  0.98147023  0.71588719  0.54473656    -0.65900
O861        O  0.02187959  0.84139483  0.00533234    -0.78200
C862        C  0.14685739  0.73678139  0.50217409     0.85300
O863        O  0.10488587  0.76701961  0.99013687    -0.65400
Ni864      Ni  0.90242789  0.83040800  0.98311141     1.27400
Ni865      Ni  0.96746869  0.72239069  0.50123381     1.26100
H866        H  0.04627206  0.70340502  0.97035146     0.39800
O867        O  0.14502217  0.69999184  0.76658504    -0.80100
O868        O  0.89409179  0.73001540  0.75712698    -0.64800
O869        O  0.03979279  0.71168547  0.74257748    -1.11400
C870        C  0.98239783  0.87386979  0.74493036     1.06700
O871        O  0.85214641  0.79562170  0.73312998    -0.78000
O872        O  0.92959652  0.79497032  0.69613752    -0.65600
Ni873      Ni  0.09534558  0.66773597  0.76730932     1.34900
C874        C  0.97786648  0.78248827  0.68797433     0.85500
O875        O  0.97776700  0.65650914  0.74238220    -0.78600
O876        O  0.05568682  0.62668307  0.76985160    -0.88900
C877        C  0.85151946  0.75996816  0.74569344     0.85100
O878        O  0.06745478  0.70226691  0.80364936    -0.67100
O879        O  0.94042211  0.87007655  0.73079813    -0.86300
C880        C  0.01934786  0.71478887  0.81200141     0.85900
C881        C  0.01416759  0.62275123  0.75523368     1.07400
H882        H  0.95116674  0.79412751  0.77879516     0.39300
O883        O  0.95737708  0.78465352  0.75752219    -1.09000
O884        O  0.01704603  0.78357432  0.70633047    -0.65700
Ni885      Ni  0.03034753  0.77599810  0.74992456     1.26300
O886        O  0.98041625  0.71260541  0.79381092    -0.65900
O887        O  0.01936322  0.84001709  0.75741885    -0.78200
C888        C  0.14595503  0.73574514  0.75430646     0.85300
O889        O  0.10348955  0.76624231  0.74311615    -0.65400
Ni890      Ni  0.90141905  0.82847123  0.73283440     1.27400
Ni891      Ni  0.96692265  0.72039199  0.75016548     1.26100
H892        H  0.04588355  0.70206715  0.72140269     0.39800
O893        O  0.64811627  0.69986637  0.51728739    -0.80100
O894        O  0.39675186  0.72854343  0.50630327    -0.64800
O895        O  0.54271792  0.71082979  0.99185944    -1.11400
C896        C  0.48592211  0.87311254  0.99423322     1.06700
O897        O  0.35510864  0.79519201  0.98210379    -0.78000
O898        O  0.43159017  0.79602213  0.94508661    -0.65600
Ni899      Ni  0.59923161  0.66641649  0.51723755     1.34900
C900        C  0.47969198  0.78289253  0.93658469     0.85500
O901        O  0.48110962  0.65408525  0.49300548    -0.78600
O902        O  0.56076751  0.62429934  0.51909539    -0.88900
C903        C  0.35407954  0.75984581  0.99487420     0.85100
O904        O  0.57016359  0.70022618  0.55370607    -0.67100
O905        O  0.44305656  0.87006881  0.98080248    -0.86300
C906        C  0.52178692  0.71296205  0.56170977     0.85900
C907        C  0.51837898  0.62043995  0.50551056     1.07400
H908        H  0.45439183  0.79262919  0.52690531     0.39300
O909        O  0.46061629  0.78256098  0.50571439    -1.09000
O910        O  0.51954221  0.78247688  0.95489850    -0.65700
Ni911      Ni  0.53341395  0.77503206  0.99856590     1.26300
O912        O  0.48278638  0.71190341  0.54320268    -0.65900
O913        O  0.52326890  0.83880319  0.00593022    -0.78200
C914        C  0.64891970  0.73454220  0.50358722     0.85300
O915        O  0.60620393  0.76482913  0.99103792    -0.65400
Ni916      Ni  0.40422828  0.82823592  0.98229677     1.27400
Ni917      Ni  0.47011301  0.71820415  0.49945552     1.26100
H918        H  0.54886256  0.70102646  0.97062375     0.39800
O919        O  0.64637969  0.69768539  0.76389133    -0.80100
O920        O  0.39526976  0.72866931  0.75938546    -0.64800
O921        O  0.54019095  0.70882174  0.74134018    -1.11400
C922        C  0.48327844  0.87138297  0.74390444     1.06700
O923        O  0.35365744  0.79206129  0.73303874    -0.78000
O924        O  0.42808109  0.79437587  0.69522912    -0.65600
Ni925      Ni  0.59704433  0.66532772  0.76582875     1.34900
C926        C  0.47590842  0.78153662  0.68638683     0.85500
O927        O  0.47799829  0.65402586  0.74384411    -0.78600
O928        O  0.55802704  0.62400658  0.76938672    -0.88900
C929        C  0.35270486  0.75810210  0.74747204     0.85100
O930        O  0.57110852  0.69977374  0.80275967    -0.67100
O931        O  0.43983290  0.86841855  0.73118452    -0.86300
C932        C  0.52339378  0.71238090  0.81178561     0.85900
C933        C  0.51551212  0.62016101  0.75598204     1.07400
H934        H  0.45396610  0.79201733  0.77822772     0.39300
O935        O  0.45896169  0.78218983  0.75691462    -1.09000
O936        O  0.51616054  0.78071428  0.70444829    -0.65700
Ni937      Ni  0.53139522  0.77310109  0.74793932     1.26300
O938        O  0.48365157  0.71085427  0.79408560    -0.65900
O939        O  0.52134549  0.83693959  0.75502877    -0.78200
C940        C  0.64677956  0.73295024  0.75075905     0.85300
O941        O  0.60391928  0.76293715  0.73962054    -0.65400
Ni942      Ni  0.40177505  0.82597436  0.73285878     1.27400
Ni943      Ni  0.46778392  0.71801418  0.75059206     1.26100
H944        H  0.54518551  0.69903002  0.72002396     0.39800
O945        O  0.03715724  0.92335206  0.99845928    -0.73700
O946        O  0.05126609  0.54246027  0.00530860    -0.73700
O947        O  0.04335110  0.98190760  0.54562143    -0.73800
O948        O  0.04529026  0.98324211  0.95788301    -0.73800
O949        O  0.95479817  0.51799564  0.95452770    -0.73700
O950        O  0.95402420  0.51703019  0.54237343    -0.73700
O951        O  0.96206415  0.57668464  0.50171283    -0.73700
O952        O  0.94725096  0.95818332  0.99482225    -0.73800
Ni953      Ni  0.04749760  0.98175907  0.00191818     1.25400
Ni954      Ni  0.95171648  0.51828635  0.49837026     1.25400
C955        C  0.98977367  0.92121695  0.99568808     0.88500
C956        C  0.00946040  0.57879761  0.50468260     0.88400
C957        C  0.99852587  0.49926263  0.55849791     0.88500
C958        C  0.00075367  0.00085007  0.94173975     0.88600
O959        O  0.05044160  0.54037764  0.75424816    -0.73700
O960        O  0.03559016  0.92150764  0.74891020    -0.73700
O961        O  0.04197937  0.98052378  0.70727801    -0.73800
O962        O  0.04318752  0.98196365  0.79498805    -0.73800
O963        O  0.95357828  0.51654819  0.79252591    -0.73700
O964        O  0.95283992  0.51554875  0.70472665    -0.73700
O965        O  0.94564553  0.95622844  0.74566621    -0.73700
O966        O  0.96054082  0.57549487  0.75109724    -0.73800
Ni967      Ni  0.04577136  0.97996107  0.75131923     1.25400
Ni968      Ni  0.94990083  0.51722694  0.74844987     1.25400
C969        C  0.00803580  0.57741337  0.75353726     0.88500
C970        C  0.98822285  0.91933160  0.74651124     0.88400
C971        C  0.99707349  0.99798240  0.69145754     0.88500
C972        C  0.99855640  0.49935777  0.80835280     0.88600
O973        O  0.53986542  0.92014073  0.99845090    -0.73700
O974        O  0.55432153  0.53933728  0.00501346    -0.73700
O975        O  0.54691033  0.97876290  0.54464785    -0.73800
O976        O  0.54731772  0.97900475  0.95701872    -0.73800
O977        O  0.45694765  0.51429220  0.95540520    -0.73700
O978        O  0.45767957  0.51373151  0.54318512    -0.73700
O979        O  0.46498217  0.57303778  0.50200026    -0.73700
O980        O  0.44997411  0.95535800  0.99530635    -0.73800
Ni981      Ni  0.55067545  0.97836037  0.00108797     1.25400
Ni982      Ni  0.45431797  0.51478518  0.49915922     1.25400
C983        C  0.49231165  0.91831376  0.99602440     0.88500
C984        C  0.51243342  0.57504447  0.50438542     0.88400
C985        C  0.50240975  0.49629740  0.55917837     0.88500
C986        C  0.50241003  0.99610520  0.94112561     0.88600
O987        O  0.55216578  0.53763190  0.75550030    -0.73700
O988        O  0.53695244  0.91871591  0.74818113    -0.73700
O989        O  0.54449864  0.97782953  0.70702619    -0.73800
O990        O  0.54452127  0.97866451  0.79458106    -0.73800
O991        O  0.45491738  0.51295084  0.79320611    -0.73700
O992        O  0.45488246  0.01265656  0.70412787    -0.73700
O993        O  0.44705087  0.95370834  0.74486414    -0.73700
O994        O  0.46226527  0.57258956  0.75218970    -0.73800
Ni995      Ni  0.54757960  0.97706032  0.75097384     1.25400
Ni996      Ni  0.45142600  0.01434435  0.74787038     1.25400
C997        C  0.50968100  0.57464876  0.75466300     0.88500
C998        C  0.48946502  0.91672153  0.74564370     0.88400
C999        C  0.49987107  0.99522416  0.69099219     0.88500
C1000       C  0.49978236  0.99591032  0.80787859     0.88600
C1001       C  0.54881201  0.48792553  0.86129397     0.24300
C1002       C  0.50044210  0.99558378  0.84197889    -0.23800
C1003       C  0.45286603  0.00235305  0.85688261     0.19200
C1004       C  0.45358788  0.00240681  0.88890651     0.24300
C1005       C  0.50196326  0.99552807  0.90702108    -0.23700
C1006       C  0.54935599  0.48820358  0.89329852     0.19200
F1007       F  0.59681683  0.48198476  0.90970834    -0.13700
F1008       F  0.59591228  0.48120850  0.84820591    -0.16000
F1009       F  0.40676266  0.00841014  0.90206972    -0.16000
F1010       F  0.40554068  0.00793040  0.84050343    -0.13700
C1011       C  0.54812073  0.97092153  0.64164495     0.24300
C1012       C  0.50041023  0.99541179  0.65690982    -0.23800
C1013       C  0.45425452  0.52121288  0.64056656     0.19200
C1014       C  0.45487017  0.52165001  0.60864745     0.24300
C1015       C  0.50168671  0.99643437  0.59196661    -0.23700
C1016       C  0.54876223  0.97143024  0.60971329     0.19200
F1017       F  0.59575581  0.94690056  0.59628600    -0.13700
F1018       F  0.59449498  0.94588304  0.65748944    -0.16000
F1019       F  0.40893550  0.54772233  0.59289814    -0.16000
F1020       F  0.40762953  0.54662609  0.65406713    -0.13700
C1021       C  0.95381428  0.52876128  0.85824781     0.24300
C1022       C  0.99918826  0.50009628  0.84246690    -0.23800
C1023       C  0.04623943  0.97360482  0.85983068     0.19200
C1024       C  0.04701314  0.97415544  0.89188372     0.24300
C1025       C  0.00102532  0.00155358  0.90768703    -0.23700
C1026       C  0.95428069  0.52914482  0.89025183     0.19200
F1027       F  0.90969225  0.55792641  0.90427817    -0.13700
F1028       F  0.90895901  0.55727499  0.84282948    -0.16000
F1029       F  0.09277535  0.94704645  0.90730082    -0.16000
F1030       F  0.09126842  0.94579756  0.84575149    -0.13700
C1031       C  0.04163163  0.96812784  0.60960184     0.24300
C1032       C  0.99800680  0.49876685  0.59251211    -0.23800
C1033       C  0.95319434  0.52856452  0.60830519     0.19200
C1034       C  0.95300036  0.52822818  0.64027851     0.24300
C1035       C  0.99692462  0.99801098  0.65738694    -0.23700
C1036       C  0.04145505  0.96785035  0.64155589     0.19200
F1037       F  0.08469852  0.93714412  0.65687554    -0.13700
F1038       F  0.08499209  0.93755443  0.59543491    -0.16000
F1039       F  0.90932605  0.55833960  0.65443366    -0.16000
F1040       F  0.90975432  0.55898622  0.59294702    -0.13700
C1041       C  0.54871458  0.74727358  0.86139327     0.24300
C1042       C  0.51299983  0.72971552  0.84391536    -0.23800
C1043       C  0.46562297  0.73106169  0.85697570     0.19200
C1044       C  0.45420827  0.74945987  0.88669191     0.24300
C1045       C  0.49013450  0.76657547  0.90430501    -0.23700
C1046       C  0.53742287  0.76546465  0.89124403     0.19200
F1047       F  0.57247529  0.78272047  0.90712236    -0.13700
F1048       F  0.59409386  0.74790366  0.84944921    -0.16000
F1049       F  0.40851045  0.74918404  0.89844277    -0.16000
F1050       F  0.43051602  0.71370077  0.84126005    -0.13700
C1051       C  0.46384450  0.72889014  0.60674550     0.24300
C1052       C  0.50999266  0.73021744  0.59364987    -0.23800
C1053       C  0.54354992  0.75020844  0.61094110     0.19200
C1054       C  0.53153891  0.76808933  0.64070762     0.24300
C1055       C  0.48589381  0.76614516  0.65399147    -0.23700
C1056       C  0.45189515  0.74669955  0.63658396     0.19200
F1057       F  0.40797391  0.74342607  0.64872091    -0.13700
F1058       F  0.43086766  0.70928493  0.59099816    -0.16000
F1059       F  0.56428286  0.78803342  0.65633793    -0.16000
F1060       F  0.58745115  0.75357792  0.59884015    -0.13700
C1061       C  0.75082433  0.78481178  0.73359207     0.24300
C1062       C  0.79913055  0.75296458  0.74676256    -0.23800
C1063       C  0.79675335  0.71412925  0.76085196     0.19200
C1064       C  0.74765120  0.70753919  0.76194893     0.24300
C1065       C  0.69928518  0.73947878  0.74890511    -0.23700
C1066       C  0.70172006  0.77809598  0.73455945     0.19200
F1067       F  0.65657570  0.80981452  0.72140078    -0.13700
F1068       F  0.75060708  0.82280924  0.71967219    -0.16000
F1069       F  0.74790739  0.66969304  0.77607181    -0.16000
F1070       F  0.84191664  0.68220326  0.77384338    -0.13700
C1071       C  0.24781881  0.70551200  0.76112499     0.24300
C1072       C  0.19883601  0.74183245  0.75318991    -0.23800
C1073       C  0.20114149  0.78400500  0.74427744     0.19200
C1074       C  0.25088082  0.78934612  0.74273964     0.24300
C1075       C  0.29985881  0.75265199  0.74996724    -0.23700
C1076       C  0.29756490  0.71083340  0.75950164     0.19200
F1077       F  0.34348952  0.67447958  0.76687484    -0.13700
F1078       F  0.24807560  0.66427941  0.77017719    -0.16000
F1079       F  0.25069811  0.83098813  0.73453128    -0.16000
F1080       F  0.15525570  0.82064465  0.73732817    -0.13700
C1081       C  0.79353152  0.72837264  0.52209020     0.24300
C1082       C  0.80073981  0.75561423  0.99894186    -0.23800
C1083       C  0.75485063  0.78104900  0.98056957     0.19200
C1084       C  0.70575948  0.77453470  0.98200851     0.24300
C1085       C  0.70107041  0.74153705  0.50215792    -0.23700
C1086       C  0.74460260  0.72143383  0.52350498     0.19200
F1087       F  0.73967885  0.69575158  0.54624147    -0.13700
F1088       F  0.83398049  0.70919505  0.54355603    -0.16000
F1089       F  0.66325801  0.79911192  0.96322909    -0.16000
F1090       F  0.75732610  0.81191363  0.96066227    -0.13700
C1091       C  0.20241282  0.78603529  0.99306538     0.24300
C1092       C  0.20009135  0.74175254  0.49934472    -0.23800
C1093       C  0.24878649  0.70694743  0.50954642     0.19200
C1094       C  0.29868848  0.71185980  0.50742908     0.24300
C1095       C  0.30125491  0.75373592  0.99602860    -0.23700
C1096       C  0.25210714  0.79161271  0.99166753     0.19200
F1097       F  0.25180245  0.83463488  0.98680430    -0.13700
F1098       F  0.15628293  0.82385232  0.98943393    -0.16000
F1099       F  0.34414772  0.67718639  0.51760982    -0.16000
F1100       F  0.24861868  0.66760249  0.52148254    -0.13700
C1101       C  0.95950816  0.73633938  0.85653433     0.24300
C1102       C  0.00818646  0.73262794  0.84394457    -0.23800
C1103       C  0.04552465  0.74769356  0.86192835     0.19200
C1104       C  0.03490414  0.76530833  0.89184973     0.24300
C1105       C  0.98652743  0.76856835  0.90458319    -0.23700
C1106       C  0.94886508  0.75400177  0.88650214     0.19200
F1107       F  0.90219000  0.75553394  0.89799240    -0.13700
F1108       F  0.92233453  0.72215695  0.84012559    -0.16000
F1109       F  0.07205618  0.77961673  0.90816932    -0.16000
F1110       F  0.09216300  0.74634120  0.85047620    -0.13700
C1111       C  0.05039102  0.71610969  0.61869938     0.24300
C1112       C  0.01007682  0.73208450  0.59506972    -0.23800
C1113       C  0.95913505  0.76508278  0.60224396     0.19200
C1114       C  0.94884006  0.78175115  0.63237327     0.24300
C1115       C  0.98921461  0.76591731  0.65597724    -0.23700
C1116       C  0.04013585  0.73291936  0.64883836     0.19200
F1117       F  0.07976690  0.71587205  0.67109288    -0.13700
F1118       F  0.09942655  0.68336859  0.61280428    -0.16000
F1119       F  0.89968740  0.81432561  0.63827889    -0.16000
F1120       F  0.91949635  0.78235697  0.58001944    -0.13700
loop_ 
_geom_bond_atom_site_label_1 
_geom_bond_atom_site_label_2 
_geom_bond_distance 
_geom_bond_site_symmetry_2 
_ccdc_geom_bond_type 
O1           Ni7   1.929       .  S
O1           C22   1.272       .  A
O2          Ni25   1.896       .  S
O2          C291   1.265   1_554  A
O3           H26   0.966       .  S
O3          Ni19   1.912       .  S
O3         Ni287   1.925       .  S
O3         Ni305   1.911   1_455  S
C4           O21   1.267   1_655  A
C4           O13   1.273       .  A
C4          C115   1.466       .  S
O5          Ni24   1.931       .  S
O5           C11   1.272       .  A
O6          Ni24   1.903       .  S
O6            C8   1.270       .  A
Ni7          O10   1.935       .  S
Ni7          O12   1.905       .  S
Ni7         O283   1.925   1_554  S
C8           O18   1.273   1_655  A
C8          C265   1.481       .  S
O9          Ni25   1.899   1_556  S
O9           C15   1.266   1_656  A
O10          C15   1.273       .  A
C11         O282   1.264       .  A
C11         C242   1.485       .  S
O12          C14   1.270       .  A
O13         Ni24   1.933       .  S
C14          O20   1.273   1_455  A
C14         C272   1.479       .  S
C15         C116   1.465       .  S
H16          O17   0.965       .  S
O17         Ni25   1.915       .  S
O17        Ni299   1.912   1_654  S
O17        Ni304   1.925   1_554  S
O18         Ni19   1.927       .  S
Ni19         O23   1.900       .  S
Ni19         O21   1.899       .  S
Ni19        O297   1.913   1_455  S
O20         Ni25   1.928       .  S
C22         O303   1.267   1_554  A
C22         C252   1.489   1_554  S
O23         C302   1.266       .  A
Ni24        O297   1.925       .  S
Ni25        O283   1.911   1_654  S
O27         Ni33   1.925       .  S
O27          C48   1.271       .  A
O28         Ni51   1.895       .  S
O28          C37   1.265       .  A
O29          H52   0.966       .  S
O29         Ni33   1.922       .  S
O29         Ni51   1.910   1_455  S
O29         Ni45   1.919       .  S
C30          O47   1.267   1_655  A
C30          O39   1.272       .  A
C30         C130   1.465       .  S
O31         Ni50   1.931       .  S
O31          C37   1.271       .  A
O32         Ni50   1.901       .  S
O32          C34   1.270       .  A
Ni33         O36   1.935       .  S
Ni33         O38   1.899       .  S
C34          O44   1.273   1_655  A
C34         C275   1.479       .  S
O35         Ni51   1.897       .  S
O35          C41   1.265   1_655  A
O36          C41   1.272       .  A
C37         C222   1.487       .  S
O38          C40   1.269       .  A
O39         Ni50   1.932       .  S
C40          O46   1.275   1_455  A
C40         C262   1.481       .  S
C41         C129   1.464       .  S
H42          O43   0.966       .  S
O43         Ni51   1.913       .  S
O43         Ni45   1.912   1_655  S
O43         Ni50   1.923       .  S
O44         Ni45   1.930       .  S
Ni45         O49   1.900       .  S
Ni45         O47   1.900       .  S
O46         Ni51   1.934       .  S
C48          O49   1.267       .  A
C48         C232   1.488       .  S
O53         Ni59   1.932       .  S
O53          C74   1.271       .  A
O54         Ni77   1.902   1_554  S
O54         C343   1.267   1_554  A
O55          H78   0.966       .  S
O55         Ni71   1.912       .  S
O55        Ni339   1.925       .  S
O55        Ni357   1.913       .  S
C56          O73   1.265       .  A
C56          O65   1.273       .  A
C56         C143   1.465       .  S
O57         Ni76   1.929       .  S
O57          C63   1.272       .  A
O58         Ni76   1.902       .  S
O58          C60   1.270       .  A
Ni59         O62   1.930       .  S
Ni59         O64   1.901       .  S
Ni59        O335   1.924   1_554  S
C60          O70   1.274       .  A
C60         C205   1.488       .  S
O61         Ni77   1.901       .  S
O61          C67   1.268   1_556  A
O62          C67   1.272       .  A
C63         O334   1.267       .  A
C63         C255   1.491       .  S
O64          C66   1.270       .  A
O65         Ni76   1.935       .  S
C66          O72   1.273       .  A
C66         C212   1.486       .  S
C67         C144   1.465       .  S
H68          O69   0.966       .  S
O69         Ni77   1.919   1_554  S
O69        Ni351   1.911   1_554  S
O69        Ni356   1.924   1_554  S
O70         Ni71   1.935       .  S
Ni71         O75   1.894       .  S
Ni71         O73   1.897       .  S
Ni71        O349   1.911       .  S
O72         Ni77   1.929   1_554  S
C74         O355   1.264   1_554  A
C74         C245   1.485       .  S
O75         C354   1.265       .  A
Ni76        O349   1.924       .  S
Ni77        O335   1.913       .  S
O79         Ni85   1.927       .  S
O79         C100   1.271       .  A
O80        Ni103   1.900       .  S
O80          C89   1.266       .  A
O81         H104   0.966       .  S
O81         Ni85   1.924       .  S
O81        Ni103   1.912       .  S
O81         Ni97   1.918       .  S
C82          O99   1.266       .  A
C82          O91   1.273       .  A
C82         C158   1.464       .  S
O83        Ni102   1.927       .  S
O83          C89   1.271       .  A
O84        Ni102   1.905       .  S
O84          C86   1.269       .  A
Ni85         O88   1.934       .  S
Ni85         O90   1.906       .  S
C86          O96   1.273       .  A
C86         C215   1.486       .  S
O87        Ni103   1.901       .  S
O87          C93   1.267       .  A
O88          C93   1.272       .  A
C89         C235   1.486       .  S
O90          C92   1.270       .  A
O91        Ni102   1.935       .  S
C92          O98   1.274       .  A
C92         C202   1.488       .  S
C93         C157   1.467       .  S
H94          O95   0.966       .  S
O95        Ni103   1.914       .  S
O95         Ni97   1.909       .  S
O95        Ni102   1.923       .  S
O96         Ni97   1.931       .  S
Ni97        O101   1.899       .  S
Ni97         O99   1.897       .  S
O98        Ni103   1.931       .  S
C100        O101   1.265       .  A
C100        C225   1.486       .  S
O105       Ni113   1.917       .  S
O105        C115   1.280   1_455  A
O106       Ni673   1.917   1_545  S
O106        C396   1.281       .  A
O107       Ni393   1.920       .  S
O107        C677   1.282   1_455  A
O108       Ni113   1.929       .  S
O108        C118   1.284       .  A
O109       Ni394   1.917       .  S
O109        C678   1.282   1_655  A
O110       Ni114   1.928   1_554  S
O110        C117   1.284       .  A
O111       Ni114   1.917   1_554  S
O111        C116   1.281   1_655  A
O112       Ni954   1.917       .  S
O112        C115   1.281       .  A
Ni113       O666   1.917       .  S
Ni113       O387   1.920       .  S
Ni113      Ni954   2.386   1_455  S
Ni114       O389   1.918       .  S
Ni114       O952   1.919   1_545  S
Ni114      Ni953   2.386   1_646  S
C116        O386   1.281       .  A
C117        O667   1.282   1_645  A
C117        C192   1.494   1_545  S
C118        O669   1.282   1_455  A
C118        C185   1.496       .  S
O119       Ni687   1.915   1_545  S
O119        C129   1.280       .  A
O120       Ni127   1.915       .  S
O120        C130   1.280   1_455  A
O121       Ni127   1.929       .  S
O121        C131   1.285   1_455  A
O122       Ni127   1.920       .  S
O122        C692   1.282   1_455  A
O123       Ni128   1.928       .  S
O123        C132   1.284   1_545  A
O124       Ni128   1.921       .  S
O124        C691   1.282   1_545  A
O125       Ni688   1.918       .  S
O125        C130   1.281       .  A
O126       Ni128   1.917       .  S
O126        C129   1.281   1_655  A
Ni127       O679   1.915       .  S
Ni127      Ni688   2.386   1_455  S
Ni128       O685   1.919   1_545  S
Ni128      Ni687   2.386   1_645  S
C131        O684   1.282       .  A
C131        C195   1.494       .  S
C132        O682   1.281   1_655  A
C132        C182   1.494   1_655  S
O133       Ni141   1.918       .  S
O133        C143   1.281       .  A
O134       Ni701   1.916   1_545  S
O134        C424   1.281       .  A
O135       Ni421   1.922       .  S
O135        C705   1.282       .  A
O136       Ni141   1.927       .  S
O136        C146   1.284       .  A
O137       Ni422   1.917       .  S
O137        C706   1.281   1_545  A
O138       Ni142   1.926   1_554  S
O138        C145   1.284   1_545  A
O139       Ni142   1.915   1_554  S
O139        C144   1.280       .  A
O140       Ni982   1.916       .  S
O140        C143   1.280       .  A
Ni141       O694   1.917       .  S
Ni141       O415   1.921       .  S
Ni141      Ni982   2.386       .  S
Ni142       O417   1.917       .  S
Ni142       O980   1.913   1_545  S
Ni142      Ni981   2.387   1_546  S
C144        O414   1.281       .  A
C145        O695   1.282       .  A
C145        C735   1.494       .  S
C146        O697   1.281       .  A
C146        C165   1.492       .  S
O147       Ni715   1.918   1_545  S
O147        C157   1.281       .  A
O148       Ni155   1.917       .  S
O148        C158   1.281       .  A
O149       Ni155   1.925       .  S
O149        C159   1.283       .  A
O150       Ni155   1.917       .  S
O150        C160   1.281       .  A
O151       Ni716   1.930       .  S
O151        C720   1.285   1_545  A
O152       Ni156   1.921       .  S
O152        C159   1.283       .  A
O153       Ni156   1.915       .  S
O153        C158   1.280       .  A
O154       Ni716   1.918       .  S
O154        C157   1.280       .  A
Ni155       O707   1.917       .  S
Ni155      Ni156   2.386       .  S
Ni156       O711   1.930       .  S
Ni156       O714   1.917       .  S
C159        C172   1.496       .  S
C160        O711   1.285       .  A
C160        C162   1.493       .  S
C161        C166   1.401       .  A
C161        C722   1.411       .  A
C161        F168   1.358       .  S
C162        C163   1.409       .  A
C162        C721   1.412       .  A
C163        C164   1.401       .  A
C163        F170   1.358       .  S
C164        C165   1.411       .  A
C164        F169   1.358       .  S
C165        C726   1.409       .  A
C166        C725   1.409       .  A
C166        F167   1.358       .  S
C171        C172   1.411       .  A
C171        C176   1.403       .  A
C171        F178   1.358       .  S
C172        C733   1.411       .  A
C173        C174   1.401       .  A
C173        C732   1.411   1_545  A
C173        F180   1.358       .  S
C174        C735   1.410   1_545  A
C174        F179   1.358       .  S
C175        C705   1.497       .  S
C175        C176   1.412       .  A
C175        C734   1.410       .  A
C176        F177   1.358       .  S
C181        C182   1.409   1_645  A
C181        C186   1.401       .  A
C181        F188   1.358       .  S
C182        C743   1.412       .  A
C183        C184   1.403       .  A
C183        C742   1.412       .  A
C183        F190   1.358       .  S
C184        C185   1.410       .  A
C184        F189   1.358       .  S
C185        C746   1.412   1_455  A
C186        C745   1.411   1_655  A
C186        F187   1.358       .  S
C191        C196   1.401       .  A
C191        C752   1.410   1_455  A
C191        F198   1.358       .  S
C192        C193   1.410   1_565  A
C192        C751   1.411   1_655  A
C193        C194   1.404       .  A
C193        F200   1.358       .  S
C194        C755   1.411   1_545  A
C194        F199   1.358       .  S
C195        C196   1.409   1_655  A
C195        C754   1.412       .  A
C196        F197   1.358       .  S
C201        C202   1.410       .  A
C201        C206   1.399       .  A
C201        F208   1.358       .  S
C202        C203   1.411       .  A
C203        C204   1.395       .  A
C203        F210   1.358       .  S
C204        C205   1.410       .  A
C204        F209   1.358       .  S
C205        C206   1.411       .  A
C206        F207   1.358       .  S
C211        C212   1.411       .  A
C211        C216   1.398       .  A
C211        F218   1.358       .  S
C212        C213   1.409       .  A
C213        C214   1.394       .  A
C213        F220   1.358       .  S
C214        C215   1.411       .  A
C214        F219   1.358       .  S
C215        C216   1.410       .  A
C216        F217   1.358       .  S
C221        C222   1.411       .  A
C221        C226   1.399       .  A
C221        F228   1.358       .  S
C222        C223   1.409       .  A
C223        C224   1.396       .  A
C223        F230   1.358       .  S
C224        C225   1.409       .  A
C224        F229   1.358       .  S
C225        C226   1.409       .  A
C226        F227   1.358       .  S
C231        C232   1.411       .  A
C231        C236   1.398       .  A
C231        F238   1.358       .  S
C232        C233   1.409       .  A
C233        C234   1.398       .  A
C233        F240   1.358       .  S
C234        C235   1.410       .  A
C234        F239   1.358       .  S
C235        C236   1.408       .  A
C236        F237   1.358       .  S
C241        C246   1.399       .  A
C241        C522   1.409   1_554  A
C241        F248   1.358       .  S
C242        C243   1.408       .  A
C242        C521   1.410       .  A
C243        C244   1.397       .  A
C243        F250   1.358       .  S
C244        C525   1.409       .  A
C244        F249   1.358       .  S
C245        C246   1.410       .  A
C245        C524   1.409   1_554  A
C246        F247   1.358       .  S
C251        C256   1.399       .  A
C251        C532   1.409       .  A
C251        F258   1.358       .  S
C252        C253   1.411   1_556  A
C252        C531   1.409       .  A
C253        C254   1.399       .  A
C253        F260   1.358       .  S
C254        C535   1.409   1_554  A
C254        F259   1.358       .  S
C255        C256   1.412       .  A
C255        C534   1.410       .  A
C256        F257   1.358       .  S
C261        C262   1.409   1_655  A
C261        C266   1.397       .  A
C261        F268   1.358       .  S
C262        C263   1.409       .  A
C263        C264   1.395       .  A
C263        F270   1.358       .  S
C264        C265   1.409   1_455  A
C264        F269   1.358       .  S
C265        C266   1.409       .  A
C266        F267   1.358       .  S
C271        C272   1.407       .  A
C271        C276   1.397       .  A
C271        F278   1.358       .  S
C272        C273   1.410   1_455  A
C273        C274   1.394       .  A
C273        F280   1.358       .  S
C274        C275   1.406       .  A
C274        F279   1.358       .  S
C275        C276   1.410   1_655  A
C276        F277   1.358       .  S
O281       Ni287   1.931       .  S
O281        C302   1.272       .  A
O282       Ni305   1.896       .  S
O283        H306   0.966       .  S
O283       Ni299   1.917       .  S
C284        O301   1.267   1_656  A
C284        O293   1.272       .  A
C284        C395   1.466       .  S
O285       Ni304   1.928       .  S
O285        C291   1.271       .  A
O286       Ni304   1.902       .  S
O286        C288   1.269       .  A
Ni287       O290   1.934       .  S
Ni287       O292   1.905       .  S
C288        O298   1.273   1_655  A
C288        C545   1.481       .  S
O289       Ni305   1.897       .  S
O289        C295   1.267   1_655  A
O290        C295   1.273       .  A
C291        C522   1.484       .  S
O292        C294   1.270       .  A
O293       Ni304   1.932       .  S
C294        O300   1.270   1_455  A
C294        C552   1.475       .  S
C295        C396   1.464       .  S
H296        O297   0.965       .  S
O297       Ni305   1.916       .  S
O298       Ni299   1.928       .  S
Ni299       O303   1.902       .  S
Ni299       O301   1.900   1_556  S
O300       Ni305   1.923       .  S
C302        C532   1.489       .  S
O307       Ni313   1.924       .  S
O307        C328   1.270       .  A
O308       Ni331   1.895       .  S
O308        C317   1.265       .  A
O309        H332   0.962       .  S
O309       Ni313   1.922       .  S
O309       Ni331   1.909   1_455  S
O309       Ni325   1.919       .  S
C310        O327   1.267   1_655  A
C310        O319   1.272       .  A
C310        C410   1.466       .  S
O311       Ni330   1.930       .  S
O311        C317   1.271       .  A
O312       Ni330   1.901       .  S
O312        C314   1.270       .  A
Ni313       O316   1.932       .  S
Ni313       O318   1.899       .  S
C314        O324   1.273   1_655  A
C314        C555   1.474       .  S
O315       Ni331   1.899       .  S
O315        C321   1.265   1_655  A
O316        C321   1.271       .  A
C317        C502   1.486       .  S
O318        C320   1.269       .  A
O319       Ni330   1.933       .  S
C320        O326   1.274   1_455  A
C320        C542   1.481       .  S
C321        C409   1.463       .  S
H322        O323   0.966       .  S
O323       Ni331   1.915       .  S
O323       Ni325   1.912   1_655  S
O323       Ni330   1.924       .  S
O324       Ni325   1.927       .  S
Ni325       O329   1.900       .  S
Ni325       O327   1.901       .  S
O326       Ni331   1.933       .  S
C328        O329   1.267       .  A
C328        C512   1.487       .  S
O333       Ni339   1.935       .  S
O333        C354   1.272       .  A
O334       Ni357   1.901       .  S
O335        H358   0.966       .  S
O335       Ni351   1.911       .  S
C336        O353   1.264   1_556  A
C336        O345   1.272       .  A
C336        C423   1.464       .  S
O337       Ni356   1.927       .  S
O337        C343   1.271       .  A
O338       Ni356   1.902       .  S
O338        C340   1.269       .  A
Ni339       O342   1.934       .  S
Ni339       O344   1.903       .  S
C340        O350   1.274       .  A
C340        C485   1.488       .  S
O341       Ni357   1.899       .  S
O341        C347   1.267       .  A
O342        C347   1.273       .  A
C343        C535   1.489       .  S
O344        C346   1.270       .  A
O345       Ni356   1.935       .  S
C346        O352   1.273       .  A
C346        C492   1.486       .  S
C347        C424   1.466       .  S
H348        O349   0.966       .  S
O349       Ni357   1.917       .  S
O350       Ni351   1.935       .  S
Ni351       O355   1.895       .  S
Ni351       O353   1.896   1_556  S
O352       Ni357   1.929       .  S
C354        C525   1.486       .  S
O359       Ni365   1.926       .  S
O359        C380   1.271       .  A
O360       Ni383   1.901       .  S
O360        C369   1.267       .  A
O361        H384   0.966       .  S
O361       Ni365   1.923       .  S
O361       Ni383   1.912       .  S
O361       Ni377   1.918       .  S
C362        O379   1.265       .  A
C362        O371   1.274       .  A
C362        C438   1.465       .  S
O363       Ni382   1.929       .  S
O363        C369   1.272       .  A
O364       Ni382   1.905       .  S
O364        C366   1.270       .  A
Ni365       O368   1.934       .  S
Ni365       O370   1.905       .  S
C366        O376   1.273       .  A
C366        C495   1.486       .  S
O367       Ni383   1.901       .  S
O367        C373   1.267       .  A
O368        C373   1.272       .  A
C369        C515   1.487       .  S
O370        C372   1.270       .  A
O371       Ni382   1.938       .  S
C372        O378   1.274       .  A
C372        C482   1.487       .  S
C373        C437   1.466       .  S
H374        O375   0.966       .  S
O375       Ni383   1.915       .  S
O375       Ni377   1.910       .  S
O375       Ni382   1.922       .  S
O376       Ni377   1.930       .  S
Ni377       O381   1.899       .  S
Ni377       O379   1.896       .  S
O378       Ni383   1.933       .  S
C380        O381   1.265       .  A
C380        C505   1.485       .  S
O385       Ni393   1.914   1_556  S
O385        C395   1.280   1_455  A
O386       Ni953   1.916   1_545  S
O387        C957   1.282   1_455  A
O388       Ni393   1.929   1_556  S
O388        C398   1.284   1_455  A
O389        C958   1.282   1_655  A
O390       Ni394   1.927       .  S
O390        C397   1.284   1_545  A
O391       Ni394   1.915       .  S
O391        C396   1.280   1_655  A
O392       Ni674   1.919       .  S
O392        C395   1.282       .  A
Ni393       O946   1.914       .  S
Ni393      Ni674   2.386   1_454  S
Ni394       O672   1.917   1_545  S
Ni394      Ni673   2.386   1_645  S
C397        O947   1.282   1_655  A
C397        C472   1.493       .  S
C398        O949   1.282       .  A
C398        C465   1.494   1_655  S
O399       Ni967   1.915   1_545  S
O399        C409   1.280       .  A
O400       Ni407   1.918       .  S
O400        C410   1.280   1_455  A
O401       Ni407   1.926       .  S
O401        C411   1.284   1_455  A
O402       Ni407   1.916       .  S
O402        C972   1.281   1_455  A
O403       Ni408   1.929       .  S
O403        C412   1.285   1_545  A
O404       Ni408   1.921       .  S
O404        C971   1.282   1_545  A
O405       Ni968   1.918       .  S
O405        C410   1.281       .  A
O406       Ni408   1.915       .  S
O406        C409   1.280   1_655  A
Ni407       O959   1.917       .  S
Ni407      Ni968   2.387   1_455  S
Ni408       O965   1.917   1_545  S
Ni408      Ni967   2.387   1_645  S
C411        O964   1.282       .  A
C411        C475   1.493       .  S
C412        O962   1.281   1_655  A
C412        C462   1.494   1_565  S
O413       Ni421   1.917   1_556  S
O413        C423   1.281       .  A
O414       Ni981   1.917   1_545  S
O415        C985   1.282       .  A
O416       Ni421   1.926   1_556  S
O416        C426   1.284       .  A
O417        C986   1.281   1_545  A
O418       Ni422   1.926       .  S
O418        C425   1.284   1_545  A
O419       Ni422   1.917       .  S
O419        C424   1.281       .  A
O420       Ni702   1.915       .  S
O420        C423   1.280       .  A
Ni421       O974   1.917       .  S
Ni421      Ni702   2.386   1_554  S
Ni422       O700   1.916   1_545  S
Ni422      Ni701   2.386   1_545  S
C425        O975   1.282       .  A
C425       C1015   1.496       .  S
C426        O977   1.281       .  A
C426        C445   1.491       .  S
O427       Ni995   1.918   1_545  S
O427        C437   1.281       .  A
O428       Ni435   1.920       .  S
O428        C438   1.281       .  A
O429       Ni435   1.922       .  S
O429        C439   1.283       .  A
O430       Ni435   1.914       .  S
O430        C440   1.280       .  A
O431       Ni996   1.932       .  S
O431       C1000   1.285   1_545  A
O432       Ni436   1.922       .  S
O432        C439   1.283       .  A
O433       Ni436   1.915       .  S
O433        C438   1.280       .  A
O434       Ni996   1.916       .  S
O434        C437   1.280       .  A
Ni435       O987   1.920       .  S
Ni435      Ni436   2.386       .  S
Ni436       O991   1.930       .  S
Ni436       O994   1.916       .  S
C439        C452   1.495       .  S
C440        O991   1.285       .  A
C440        C442   1.492       .  S
C441       C1002   1.412       .  A
C441        C446   1.402       .  A
C441        F448   1.358       .  S
C442       C1001   1.412       .  A
C442        C443   1.408       .  A
C443        C444   1.401       .  A
C443        F450   1.358       .  S
C444        C445   1.411       .  A
C444        F449   1.358       .  S
C445       C1006   1.409       .  A
C446       C1005   1.409       .  A
C446        F447   1.358       .  S
C451        C452   1.411       .  A
C451        C456   1.402       .  A
C451        F458   1.358       .  S
C452       C1013   1.410       .  A
C453       C1012   1.411   1_545  A
C453        C454   1.402       .  A
C453        F460   1.358       .  S
C454       C1015   1.411   1_545  A
C454        F459   1.358       .  S
C455        C985   1.496       .  S
C455       C1014   1.410       .  A
C455        C456   1.412       .  A
C456        F457   1.358       .  S
C461        C462   1.409       .  A
C461        C466   1.401       .  A
C461        F468   1.358       .  S
C462       C1023   1.412   1_645  A
C463       C1022   1.412   1_455  A
C463        C464   1.402       .  A
C463        F470   1.358       .  S
C464        C465   1.410       .  A
C464        F469   1.358       .  S
C465       C1026   1.411   1_455  A
C466       C1025   1.412   1_655  A
C466        F467   1.358       .  S
C471       C1032   1.411   1_455  A
C471        C476   1.401       .  A
C471        F478   1.358       .  S
C472       C1031   1.410   1_655  A
C472        C473   1.410   1_565  A
C473        C474   1.403       .  A
C473        F480   1.358       .  S
C474       C1035   1.411   1_545  A
C474        F479   1.358       .  S
C475       C1034   1.411       .  A
C475        C476   1.409   1_655  A
C476        F477   1.358       .  S
C481        C482   1.410       .  A
C481        C486   1.398       .  A
C481        F488   1.358       .  S
C482        C483   1.411       .  A
C483        C484   1.396       .  A
C483        F490   1.358       .  S
C484        C485   1.410       .  A
C484        F489   1.358       .  S
C485        C486   1.411       .  A
C486        F487   1.358       .  S
C491        C492   1.412       .  A
C491        C496   1.397       .  A
C491        F498   1.358       .  S
C492        C493   1.409       .  A
C493        C494   1.395       .  A
C493        F500   1.358       .  S
C494        C495   1.411       .  A
C494        F499   1.358       .  S
C495        C496   1.409       .  A
C496        F497   1.358       .  S
C501        C502   1.411       .  A
C501        C506   1.399       .  A
C501        F508   1.358       .  S
C502        C503   1.409       .  A
C503        C504   1.396       .  A
C503        F510   1.358       .  S
C504        C505   1.409       .  A
C504        F509   1.358       .  S
C505        C506   1.409       .  A
C506        F507   1.358       .  S
C511        C512   1.411       .  A
C511        C516   1.399       .  A
C511        F518   1.358       .  S
C512        C513   1.408       .  A
C513        C514   1.398       .  A
C513        F520   1.358       .  S
C514        C515   1.410       .  A
C514        F519   1.358       .  S
C515        C516   1.409       .  A
C516        F517   1.358       .  S
C521        C526   1.399       .  A
C521        F528   1.358       .  S
C522        C523   1.409       .  A
C523        C524   1.397       .  A
C523        F530   1.358       .  S
C524        F529   1.358       .  S
C525        C526   1.409       .  A
C526        F527   1.358       .  S
C531        C536   1.399       .  A
C531        F538   1.358       .  S
C532        C533   1.411       .  A
C533        C534   1.399       .  A
C533        F540   1.358       .  S
C534        F539   1.358       .  S
C535        C536   1.411       .  A
C536        F537   1.358       .  S
C541        C542   1.409   1_655  A
C541        C546   1.396       .  A
C541        F548   1.358       .  S
C542        C543   1.409       .  A
C543        C544   1.395       .  A
C543        F550   1.358       .  S
C544        C545   1.409   1_455  A
C544        F549   1.358       .  S
C545        C546   1.409       .  A
C546        F547   1.358       .  S
C551        C552   1.404       .  A
C551        C556   1.394       .  A
C551        F558   1.358       .  S
C552        C553   1.410   1_455  A
C553        C554   1.395       .  A
C553        F560   1.358       .  S
C554        C555   1.405       .  A
C554        F559   1.358       .  S
C555        C556   1.409   1_655  A
C556        F557   1.358       .  S
O561       Ni567   1.928       .  S
O561        C582   1.272       .  A
O562       Ni585   1.896       .  S
O562        C851   1.265   1_554  A
O563        H586   0.966       .  S
O563       Ni847   1.924       .  S
O563       Ni865   1.911   1_455  S
O563       Ni579   1.914       .  S
C564        O581   1.267   1_655  A
C564        O573   1.273       .  A
C564        C675   1.467       .  S
O565       Ni584   1.931       .  S
O565        C571   1.272       .  A
O566       Ni584   1.904       .  S
O566        C568   1.270       .  A
Ni567       O570   1.936       .  S
Ni567       O572   1.904       .  S
Ni567       O843   1.924   1_554  S
C568        O578   1.273   1_655  A
C568        C825   1.482       .  S
O569       Ni585   1.896   1_556  S
O569        C575   1.265   1_656  A
O570        C575   1.273       .  A
C571        O842   1.264       .  A
C571        C802   1.484       .  S
O572        C574   1.270       .  A
O573       Ni584   1.935       .  S
C574        O580   1.273   1_455  A
C574        C832   1.479       .  S
C575        C676   1.464       .  S
H576        O577   0.966       .  S
O577       Ni585   1.915       .  S
O577       Ni859   1.912   1_654  S
O577       Ni864   1.924   1_554  S
O578       Ni579   1.927       .  S
Ni579       O583   1.901       .  S
Ni579       O581   1.900       .  S
Ni579       O857   1.913   1_455  S
O580       Ni585   1.929       .  S
C582        O863   1.267   1_554  A
C582        C812   1.487   1_554  S
O583        C862   1.266       .  A
Ni584       O857   1.925       .  S
Ni585       O843   1.909   1_654  S
O587       Ni593   1.926       .  S
O587        C608   1.271       .  A
O588       Ni611   1.895       .  S
O588        C597   1.265       .  A
O589        H612   0.967       .  S
O589       Ni593   1.923       .  S
O589       Ni611   1.911   1_455  S
O589       Ni605   1.919       .  S
C590        O607   1.267   1_655  A
C590        O599   1.273       .  A
C590        C690   1.466       .  S
O591       Ni610   1.931       .  S
O591        C597   1.271       .  A
O592       Ni610   1.902       .  S
O592        C594   1.270       .  A
Ni593       O596   1.933       .  S
Ni593       O598   1.899       .  S
C594        O604   1.273   1_655  A
C594        C835   1.479       .  S
O595       Ni611   1.898       .  S
O595        C601   1.265   1_655  A
O596        C601   1.272       .  A
C597        C782   1.489       .  S
O598        C600   1.269       .  A
O599       Ni610   1.934       .  S
C600        O606   1.274   1_455  A
C600        C822   1.482       .  S
C601        C689   1.464       .  S
H602        O603   0.966       .  S
O603       Ni611   1.914       .  S
O603       Ni605   1.912   1_655  S
O603       Ni610   1.923       .  S
O604       Ni605   1.929       .  S
Ni605       O609   1.901       .  S
Ni605       O607   1.901       .  S
O606       Ni611   1.932       .  S
C608        O609   1.267       .  A
C608        C792   1.486       .  S
O613       Ni619   1.931       .  S
O613        C634   1.271       .  A
O614       Ni637   1.901   1_554  S
O614        C903   1.267   1_554  A
O615        H638   0.966       .  S
O615       Ni899   1.926       .  S
O615       Ni917   1.914       .  S
O615       Ni631   1.915       .  S
C616        O633   1.266       .  A
C616        O625   1.272       .  A
C616        C703   1.465       .  S
O617       Ni636   1.930       .  S
O617        C623   1.272       .  A
O618       Ni636   1.900       .  S
O618        C620   1.269       .  A
Ni619       O622   1.932       .  S
Ni619       O624   1.902       .  S
Ni619       O895   1.924   1_554  S
C620        O630   1.273       .  A
C620        C765   1.485       .  S
O621       Ni637   1.901       .  S
O621        C627   1.268   1_556  A
O622        C627   1.272       .  A
C623        O894   1.267       .  A
C623        C815   1.493       .  S
O624        C626   1.270       .  A
O625       Ni636   1.934       .  S
C626        O632   1.272       .  A
C626        C772   1.481       .  S
C627        C704   1.465       .  S
H628        O629   0.966       .  S
O629       Ni637   1.919   1_554  S
O629       Ni911   1.912   1_554  S
O629       Ni916   1.924   1_554  S
O630       Ni631   1.933       .  S
Ni631       O635   1.893       .  S
Ni631       O633   1.898       .  S
Ni631       O909   1.911       .  S
O632       Ni637   1.928   1_554  S
C634        O915   1.264   1_554  A
C634        C805   1.488       .  S
O635        C914   1.264       .  A
Ni636       O909   1.923       .  S
Ni637       O895   1.913       .  S
O639       Ni645   1.924       .  S
O639        C660   1.271       .  A
O640       Ni663   1.899       .  S
O640        C649   1.267       .  A
O641        H664   0.966       .  S
O641       Ni645   1.923       .  S
O641       Ni663   1.911       .  S
O641       Ni657   1.922       .  S
C642        O659   1.266       .  A
C642        O651   1.273       .  A
C642        C718   1.465       .  S
O643       Ni662   1.927       .  S
O643        C649   1.272       .  A
O644       Ni662   1.904       .  S
O644        C646   1.270       .  A
Ni645       O648   1.933       .  S
Ni645       O650   1.904       .  S
C646        O656   1.273       .  A
C646        C775   1.481       .  S
O647       Ni663   1.902       .  S
O647        C653   1.267       .  A
O648        C653   1.271       .  A
C649        C795   1.485       .  S
O650        C652   1.270       .  A
O651       Ni662   1.935       .  S
C652        O658   1.274       .  A
C652        C762   1.484       .  S
C653        C717   1.465       .  S
H654        O655   0.966       .  S
O655       Ni663   1.915       .  S
O655       Ni657   1.908       .  S
O655       Ni662   1.921       .  S
O656       Ni657   1.930       .  S
Ni657       O661   1.899       .  S
Ni657       O659   1.899       .  S
O658       Ni663   1.930       .  S
C660        O661   1.266       .  A
C660        C785   1.487       .  S
O665       Ni673   1.917       .  S
O665        C675   1.281   1_455  A
O666        C956   1.281       .  A
O667       Ni953   1.921       .  S
O668       Ni673   1.929       .  S
O668        C678   1.284   1_565  A
O669       Ni954   1.919       .  S
O670       Ni674   1.928   1_554  S
O670        C677   1.284       .  A
O671       Ni674   1.918   1_554  S
O671        C676   1.281   1_655  A
O672        C675   1.281       .  A
Ni673       O947   1.920       .  S
Ni674       O949   1.918       .  S
C676        O946   1.280       .  A
C677        C752   1.494       .  S
C678        C745   1.494       .  S
O679        C689   1.280       .  A
O680       Ni687   1.916       .  S
O680        C690   1.280   1_455  A
O681       Ni687   1.928       .  S
O681        C691   1.284   1_455  A
O682       Ni687   1.918       .  S
O683       Ni688   1.927       .  S
O683        C692   1.284       .  A
O684       Ni688   1.920       .  S
O685        C690   1.281       .  A
O686       Ni688   1.917       .  S
O686        C689   1.281   1_655  A
C691        C755   1.494       .  S
C692        C742   1.495   1_655  S
O693       Ni701   1.917       .  S
O693        C703   1.280       .  A
O694        C984   1.281       .  A
O695       Ni981   1.920       .  S
O696       Ni701   1.929       .  S
O696        C706   1.284       .  A
O697       Ni982   1.917       .  S
O698       Ni702   1.929   1_554  S
O698        C705   1.284       .  A
O699       Ni702   1.916   1_554  S
O699        C704   1.280       .  A
O700        C703   1.280       .  A
Ni701       O975   1.922       .  S
Ni702       O977   1.917       .  S
C704        O974   1.281       .  A
C706        C725   1.493       .  S
O707        C717   1.281       .  A
O708       Ni715   1.918       .  S
O708        C718   1.281       .  A
O709       Ni715   1.924       .  S
O709        C719   1.283       .  A
O710       Ni715   1.916       .  S
O710        C720   1.281       .  A
O712       Ni716   1.920       .  S
O712        C719   1.282   1_545  A
O713       Ni716   1.916   1_565  S
O713        C718   1.280       .  A
O714        C717   1.280       .  A
Ni715      Ni716   2.386   1_565  S
C719        C732   1.494       .  S
C720        C722   1.493       .  S
C721        C726   1.402       .  A
C721        F728   1.358       .  S
C722        C723   1.409   1_565  A
C723        C724   1.402       .  A
C723        F730   1.358       .  S
C724        C725   1.411   1_545  A
C724        F729   1.358       .  S
C726        F727   1.358       .  S
C731        C732   1.410       .  A
C731        C736   1.402       .  A
C731        F738   1.358       .  S
C733        C734   1.402       .  A
C733        F740   1.358       .  S
C734        F739   1.358       .  S
C735        C736   1.412       .  A
C736        F737   1.358       .  S
C741        C742   1.410   1_655  A
C741        C746   1.401       .  A
C741        F748   1.358       .  S
C743        C744   1.403       .  A
C743        F750   1.358       .  S
C744        C745   1.410   1_565  A
C744        F749   1.358       .  S
C746        F747   1.358       .  S
C751        C756   1.402       .  A
C751        F758   1.358       .  S
C752        C753   1.410       .  A
C753        C754   1.404       .  A
C753        F760   1.358       .  S
C754        F759   1.358       .  S
C755        C756   1.409   1_655  A
C756        F757   1.358       .  S
C761        C762   1.410       .  A
C761        C766   1.398       .  A
C761        F768   1.358       .  S
C762        C763   1.410       .  A
C763        C764   1.393       .  A
C763        F770   1.358       .  S
C764        C765   1.409       .  A
C764        F769   1.358       .  S
C765        C766   1.411       .  A
C766        F767   1.358       .  S
C771        C772   1.411       .  A
C771        C776   1.396       .  A
C771        F778   1.358       .  S
C772        C773   1.407       .  A
C773        C774   1.395       .  A
C773        F780   1.358       .  S
C774        C775   1.410       .  A
C774        F779   1.358       .  S
C775        C776   1.407       .  A
C776        F777   1.358       .  S
C781        C782   1.411       .  A
C781        C786   1.399       .  A
C781        F788   1.358       .  S
C782        C783   1.410       .  A
C783        C784   1.397       .  A
C783        F790   1.358       .  S
C784        C785   1.410       .  A
C784        F789   1.358       .  S
C785        C786   1.409       .  A
C786        F787   1.358       .  S
C791        C792   1.410       .  A
C791        C796   1.398       .  A
C791        F798   1.358       .  S
C792        C793   1.408       .  A
C793        C794   1.398       .  A
C793        F800   1.358       .  S
C794        C795   1.410       .  A
C794        F799   1.358       .  S
C795        C796   1.408       .  A
C796        F797   1.358       .  S
C801       C1082   1.410   1_554  A
C801        C806   1.398       .  A
C801        F808   1.358       .  S
C802       C1081   1.410       .  A
C802        C803   1.408       .  A
C803        C804   1.397       .  A
C803        F810   1.358       .  S
C804       C1085   1.409       .  A
C804        F809   1.358       .  S
C805       C1084   1.410   1_554  A
C805        C806   1.411       .  A
C806        F807   1.358       .  S
C811       C1092   1.410       .  A
C811        C816   1.399       .  A
C811        F818   1.358       .  S
C812       C1091   1.409       .  A
C812        C813   1.410   1_556  A
C813        C814   1.398       .  A
C813        F820   1.358       .  S
C814       C1095   1.409   1_554  A
C814        F819   1.358       .  S
C815       C1094   1.410       .  A
C815        C816   1.412       .  A
C816        F817   1.358       .  S
C821        C822   1.409   1_655  A
C821        C826   1.397       .  A
C821        F828   1.358       .  S
C822        C823   1.409       .  A
C823        C824   1.394       .  A
C823        F830   1.358       .  S
C824        C825   1.409   1_455  A
C824        F829   1.358       .  S
C825        C826   1.409       .  A
C826        F827   1.358       .  S
C831        C832   1.407       .  A
C831        C836   1.396       .  A
C831        F838   1.358       .  S
C832        C833   1.409   1_455  A
C833        C834   1.394       .  A
C833        F840   1.358       .  S
C834        C835   1.407       .  A
C834        F839   1.358       .  S
C835        C836   1.410   1_655  A
C836        F837   1.358       .  S
O841       Ni847   1.931       .  S
O841        C862   1.272       .  A
O842       Ni865   1.894       .  S
O843        H866   0.966       .  S
O843       Ni859   1.917       .  S
C844        O861   1.267   1_656  A
C844        O853   1.272       .  A
C844        C955   1.467       .  S
O845       Ni864   1.927       .  S
O845        C851   1.271       .  A
O846       Ni864   1.901       .  S
O846        C848   1.269       .  A
Ni847       O850   1.934       .  S
Ni847       O852   1.906       .  S
C848        O858   1.274   1_655  A
C848       C1105   1.481       .  S
O849       Ni865   1.899       .  S
O849        C855   1.267   1_655  A
O850        C855   1.273       .  A
C851       C1082   1.487       .  S
O852        C854   1.270       .  A
O853       Ni864   1.933       .  S
C854        O860   1.271   1_455  A
C854       C1112   1.476       .  S
C855        C956   1.466       .  S
H856        O857   0.965       .  S
O857       Ni865   1.916       .  S
O858       Ni859   1.929       .  S
Ni859       O863   1.900       .  S
Ni859       O861   1.901   1_556  S
O860       Ni865   1.924       .  S
C862       C1092   1.492       .  S
O867       Ni873   1.925       .  S
O867        C888   1.271       .  A
O868       Ni891   1.893       .  S
O868        C877   1.265       .  A
O869        H892   0.962       .  S
O869       Ni873   1.921       .  S
O869       Ni891   1.907   1_455  S
O869       Ni885   1.918       .  S
C870        O887   1.267   1_655  A
C870        O879   1.272       .  A
C870        C970   1.465       .  S
O871       Ni890   1.928       .  S
O871        C877   1.271       .  A
O872       Ni890   1.901       .  S
O872        C874   1.270       .  A
Ni873       O876   1.935       .  S
Ni873       O878   1.897       .  S
C874        O884   1.274   1_655  A
C874       C1115   1.475       .  S
O875       Ni891   1.899       .  S
O875        C881   1.265   1_655  A
O876        C881   1.272       .  A
C877       C1062   1.489       .  S
O878        C880   1.269       .  A
O879       Ni890   1.933       .  S
C880        O886   1.274   1_455  A
C880       C1102   1.480       .  S
C881        C969   1.465       .  S
H882        O883   0.966       .  S
O883       Ni891   1.916       .  S
O883       Ni885   1.911   1_655  S
O883       Ni890   1.923       .  S
O884       Ni885   1.930       .  S
Ni885       O889   1.899       .  S
Ni885       O887   1.901       .  S
O886       Ni891   1.933       .  S
C888        O889   1.266       .  A
C888       C1072   1.488       .  S
O893       Ni899   1.932       .  S
O893        C914   1.271       .  A
O894       Ni917   1.901       .  S
O895        H918   0.966       .  S
O895       Ni911   1.913       .  S
C896        O913   1.265   1_556  A
C896        O905   1.272       .  A
C896        C983   1.464       .  S
O897       Ni916   1.927       .  S
O897        C903   1.271       .  A
O898       Ni916   1.901       .  S
O898        C900   1.270       .  A
Ni899       O902   1.934       .  S
Ni899       O904   1.902       .  S
C900        O910   1.274       .  A
C900       C1045   1.481       .  S
O901       Ni917   1.899       .  S
O901        C907   1.267       .  A
O902        C907   1.273       .  A
C903       C1095   1.487       .  S
O904        C906   1.270       .  A
O905       Ni916   1.932       .  S
C906        O912   1.273       .  A
C906       C1052   1.479       .  S
C907        C984   1.465       .  S
H908        O909   0.966       .  S
O909       Ni917   1.915       .  S
O910       Ni911   1.934       .  S
Ni911       O915   1.894       .  S
Ni911       O913   1.898   1_556  S
O912       Ni917   1.931       .  S
C914       C1085   1.484       .  S
O919       Ni925   1.926       .  S
O919        C940   1.271       .  A
O920       Ni943   1.898       .  S
O920        C929   1.266       .  A
O921        H944   0.966       .  S
O921       Ni925   1.925       .  S
O921       Ni943   1.911       .  S
O921       Ni937   1.918       .  S
C922        O939   1.266       .  A
C922        O931   1.273       .  A
C922        C998   1.465       .  S
O923       Ni942   1.926       .  S
O923        C929   1.271       .  A
O924       Ni942   1.904       .  S
O924        C926   1.269       .  A
Ni925       O928   1.935       .  S
Ni925       O930   1.906       .  S
C926        O936   1.273       .  A
C926       C1055   1.479       .  S
O927       Ni943   1.901       .  S
O927        C933   1.267       .  A
O928        C933   1.272       .  A
C929       C1075   1.486       .  S
O930        C932   1.270       .  A
O931       Ni942   1.934       .  S
C932        O938   1.273       .  A
C932       C1042   1.482       .  S
C933        C997   1.467       .  S
H934        O935   0.966       .  S
O935       Ni943   1.914       .  S
O935       Ni937   1.909       .  S
O935       Ni942   1.923       .  S
O936       Ni937   1.930       .  S
Ni937       O941   1.896       .  S
Ni937       O939   1.899       .  S
O938       Ni943   1.930       .  S
C940        O941   1.265       .  A
C940       C1065   1.489       .  S
O945       Ni953   1.917   1_556  S
O945        C955   1.280   1_455  A
O948       Ni953   1.929   1_556  S
O948        C958   1.284   1_565  A
O950       Ni954   1.927       .  S
O950        C957   1.284       .  A
O951       Ni954   1.917       .  S
O951        C956   1.280   1_655  A
O952        C955   1.281       .  A
C957       C1032   1.493       .  S
C958       C1025   1.495       .  S
O959        C969   1.281       .  A
O960       Ni967   1.917       .  S
O960        C970   1.280   1_455  A
O961       Ni967   1.926       .  S
O961        C971   1.284   1_455  A
O962       Ni967   1.916       .  S
O963       Ni968   1.928       .  S
O963        C972   1.284       .  A
O964       Ni968   1.920       .  S
O965        C970   1.281       .  A
O966       Ni968   1.917       .  S
O966        C969   1.280   1_655  A
C971       C1035   1.493       .  S
C972       C1022   1.492       .  S
O973       Ni981   1.917   1_556  S
O973        C983   1.281       .  A
O976       Ni981   1.928   1_556  S
O976        C986   1.284       .  A
O978       Ni982   1.926       .  S
O978        C985   1.284       .  A
O979       Ni982   1.916       .  S
O979        C984   1.280       .  A
O980        C983   1.280       .  A
C986       C1005   1.493       .  S
O987        C997   1.282       .  A
O988       Ni995   1.919       .  S
O988        C998   1.281       .  A
O989       Ni995   1.923       .  S
O989        C999   1.283       .  A
O990       Ni995   1.916       .  S
O990       C1000   1.281       .  A
O992       Ni996   1.923       .  S
O992        C999   1.283   1_545  A
O993       Ni996   1.914   1_565  S
O993        C998   1.280       .  A
O994        C997   1.280       .  A
Ni995      Ni996   2.386   1_565  S
C999       C1012   1.495       .  S
C1000      C1002   1.494       .  S
C1001      C1006   1.401       .  A
C1001      F1008   1.358       .  S
C1002      C1003   1.409   1_565  A
C1003      C1004   1.402       .  A
C1003      F1010   1.358       .  S
C1004      C1005   1.411   1_545  A
C1004      F1009   1.358       .  S
C1006      F1007   1.358       .  S
C1011      C1012   1.411       .  A
C1011      C1016   1.402       .  A
C1011      F1018   1.358       .  S
C1013      C1014   1.401       .  A
C1013      F1020   1.358       .  S
C1014      F1019   1.358       .  S
C1015      C1016   1.411       .  A
C1016      F1017   1.358       .  S
C1021      C1022   1.409       .  A
C1021      C1026   1.401       .  A
C1021      F1028   1.358       .  S
C1023      C1024   1.402       .  A
C1023      F1030   1.358       .  S
C1024      C1025   1.410   1_565  A
C1024      F1029   1.358       .  S
C1026      F1027   1.358       .  S
C1031      C1036   1.401       .  A
C1031      F1038   1.358       .  S
C1032      C1033   1.410       .  A
C1033      C1034   1.402       .  A
C1033      F1040   1.358       .  S
C1034      F1039   1.358       .  S
C1035      C1036   1.409   1_655  A
C1036      F1037   1.358       .  S
C1041      C1042   1.409       .  A
C1041      C1046   1.398       .  A
C1041      F1048   1.358       .  S
C1042      C1043   1.409       .  A
C1043      C1044   1.395       .  A
C1043      F1050   1.358       .  S
C1044      C1045   1.408       .  A
C1044      F1049   1.358       .  S
C1045      C1046   1.409       .  A
C1046      F1047   1.358       .  S
C1051      C1052   1.408       .  A
C1051      C1056   1.397       .  A
C1051      F1058   1.358       .  S
C1052      C1053   1.408       .  A
C1053      C1054   1.395       .  A
C1053      F1060   1.358       .  S
C1054      C1055   1.407       .  A
C1054      F1059   1.358       .  S
C1055      C1056   1.408       .  A
C1056      F1057   1.358       .  S
C1061      C1062   1.411       .  A
C1061      C1066   1.398       .  A
C1061      F1068   1.358       .  S
C1062      C1063   1.410       .  A
C1063      C1064   1.396       .  A
C1063      F1070   1.358       .  S
C1064      C1065   1.411       .  A
C1064      F1069   1.358       .  S
C1065      C1066   1.410       .  A
C1066      F1067   1.358       .  S
C1071      C1072   1.412       .  A
C1071      C1076   1.397       .  A
C1071      F1078   1.358       .  S
C1072      C1073   1.410       .  A
C1073      C1074   1.397       .  A
C1073      F1080   1.358       .  S
C1074      C1075   1.410       .  A
C1074      F1079   1.358       .  S
C1075      C1076   1.409       .  A
C1076      F1077   1.358       .  S
C1081      C1086   1.399       .  A
C1081      F1088   1.358       .  S
C1082      C1083   1.410       .  A
C1083      C1084   1.397       .  A
C1083      F1090   1.358       .  S
C1084      F1089   1.358       .  S
C1085      C1086   1.409       .  A
C1086      F1087   1.358       .  S
C1091      C1096   1.398       .  A
C1091      F1098   1.358       .  S
C1092      C1093   1.411       .  A
C1093      C1094   1.399       .  A
C1093      F1100   1.358       .  S
C1094      F1099   1.358       .  S
C1095      C1096   1.411       .  A
C1096      F1097   1.358       .  S
C1101      C1102   1.409   1_655  A
C1101      C1106   1.396       .  A
C1101      F1108   1.358       .  S
C1102      C1103   1.409       .  A
C1103      C1104   1.394       .  A
C1103      F1110   1.358       .  S
C1104      C1105   1.408   1_455  A
C1104      F1109   1.358       .  S
C1105      C1106   1.409       .  A
C1106      F1107   1.358       .  S
C1111      C1112   1.405       .  A
C1111      C1116   1.396       .  A
C1111      F1118   1.358       .  S
C1112      C1113   1.410   1_455  A
C1113      C1114   1.394       .  A
C1113      F1120   1.358       .  S
C1114      C1115   1.405       .  A
C1114      F1119   1.358       .  S
C1115      C1116   1.409   1_655  A
C1116      F1117   1.358       .  S
