geometry optimzed in LAMMPS
_audit_creation_date              2020-11-30 
_audit_creation_method            'lammps2cif' 
_symmetry_space_group_name_H-M    'P1' 
_symmetry_Int_Tables_number       1 
_symmetry_cell_setting            triclinic 
loop_ 
_symmetry_equiv_pos_as_xyz 
  x,y,z 
_cell_length_a                    27.299315984316685 
_cell_length_b                    27.13924347749419 
_cell_length_c                    38.26702525863566 
_cell_angle_alpha                 89.19270860473443 
_cell_angle_beta                  91.85495649957217 
_cell_angle_gamma                 119.47498662603091 
loop_ 
_atom_site_label 
_atom_site_type_symbol 
_atom_site_fract_x 
_atom_site_fract_y 
_atom_site_fract_z 
_atom_site_charge 
C1          C  0.58741429  0.48235075  0.08933404     0.06560
C2          C  0.56748769  0.49489808  0.05821635    -0.09590
C3          C  0.51347243  0.45671955  0.04452865     0.04060
C4          C  0.47952072  0.40685116  0.06286379    -0.08120
C5          C  0.49958139  0.39433170  0.09387093     0.06550
C6          C  0.55353782  0.43197767  0.10711045    -0.07540
H7          H  0.59388969  0.53459298  0.04520186     0.12140
H8          H  0.43775557  0.37721983  0.05266019     0.09670
H9          H  0.56913696  0.42206180  0.13108811     0.09520
C10         C  0.42691192  0.48489273  0.90766681     0.06560
C11         C  0.44653853  0.47226511  0.93888624    -0.09590
C12         C  0.50079697  0.50999755  0.95245933     0.04060
C13         C  0.53522411  0.55946369  0.93391898    -0.08120
C14         C  0.51547283  0.57203257  0.90281050     0.06550
C15         C  0.46131945  0.53486603  0.88967774    -0.07540
H16         H  0.41971519  0.43285217  0.95204372     0.12140
H17         H  0.57715760  0.58877062  0.94403818     0.09670
H18         H  0.44596498  0.54485813  0.86562568     0.09520
O19         O  0.55305821  0.54204437  0.45273077    -0.71000
O20         O  0.49838783  0.39993435  0.50036999    -0.71030
O21         O  0.45383003  0.44346652  0.45301708    -0.71080
O22         O  0.59744984  0.49849970  0.50012935    -0.71130
O23         O  0.56879841  0.53109435  0.54375066    -0.71060
O24         O  0.42526541  0.47607720  0.49667478    -0.71040
O25         O  0.46968074  0.43240991  0.54400844    -0.71020
O26         O  0.52436554  0.57460046  0.49633405    -0.71080
Ni27       Ni  0.52670925  0.46980167  0.47500900     1.25410
Ni28       Ni  0.49598496  0.50471352  0.52174511     1.25360
C29         C  0.54755514  0.58152956  0.46675335     0.91180
C30         C  0.47527182  0.39297341  0.52996696     0.91110
C31         C  0.41614307  0.45095720  0.46717281     0.91140
C32         C  0.60654021  0.52370568  0.52961046     0.91310
O33         O  0.17208795  0.74239317  0.82748591    -0.71000
O34         O  0.22467465  0.88677405  0.78323576    -0.71030
O35         O  0.27015982  0.84196201  0.82909231    -0.71080
O36         O  0.12638592  0.78697566  0.78185483    -0.71130
O37         O  0.09656329  0.81613567  0.82662358    -0.71060
O38         O  0.24009984  0.87101198  0.87379077    -0.71040
O39         O  0.19464947  0.91581154  0.82795799    -0.71020
O40         O  0.14205334  0.77147231  0.87219685    -0.71080
Ni41       Ni  0.19944362  0.81352385  0.80380318     1.25410
Ni42       Ni  0.16728684  0.84469001  0.85172162     1.25360
C43         C  0.14852242  0.73340030  0.85704597     0.91180
C44         C  0.21809295  0.92482124  0.79833636     0.91110
C45         C  0.27846135  0.86510984  0.85924345     0.91140
C46         C  0.08791714  0.79243944  0.79665978     0.91310
C47         C  0.59248394  0.06357873  0.09073506     0.06560
C48         C  0.55829139  0.07880870  0.10891583    -0.09590
C49         C  0.50477882  0.06470977  0.09550872     0.04060
C50         C  0.48531213  0.03553994  0.06376045    -0.08120
C51         C  0.51927794  0.02055533  0.04486070     0.06550
C52         C  0.57315220  0.03443941  0.05878601    -0.07540
H53         H  0.57327728  0.10152503  0.13351548     0.12140
H54         H  0.44373750  0.02496019  0.05356545     0.09670
H55         H  0.59974575  0.02198619  0.04548789     0.09520
C56         C  0.43135203  0.91208170  0.90665070     0.06560
C57         C  0.46486612  0.89485952  0.88940992    -0.09590
C58         C  0.51793101  0.90819294  0.90335242     0.04060
C59         C  0.53763951  0.93870197  0.93462597    -0.08120
C60         C  0.50433516  0.95559850  0.95260142     0.06550
C61         C  0.45092902  0.94241670  0.93820687    -0.07540
H62         H  0.44968561  0.87114730  0.86515841     0.12140
H63         H  0.57882674  0.94868720  0.94525231     0.09670
H64         H  0.42493130  0.95627953  0.95089354     0.09520
C65         C  0.92799011  0.39538927  0.09090116     0.06560
C66         C  0.95994836  0.40822273  0.06084150    -0.09590
C67         C  0.97599542  0.45902819  0.04266332     0.04060
C68         C  0.96042070  0.49768424  0.05568303    -0.08120
C69         C  0.92849742  0.48487537  0.08588884     0.06550
C70         C  0.91226999  0.43367990  0.10335632    -0.07540
H71         H  0.97175563  0.37817683  0.05131661     0.12140
H72         H  0.97351762  0.53795441  0.04298297     0.09670
H73         H  0.88739905  0.42363155  0.12660137     0.09520
C74         C  0.09506856  0.58105464  0.90534681     0.06560
C75         C  0.06359490  0.56848980  0.93559438    -0.09590
C76         C  0.04653598  0.51715549  0.95334469     0.04060
C77         C  0.06063628  0.47774945  0.93974922    -0.08120
C78         C  0.09195749  0.49027534  0.90928249     0.06550
C79         C  0.10923938  0.54199311  0.89225705    -0.07540
H80         H  0.05284111  0.59907524  0.94555168     0.12140
H81         H  0.04666852  0.43710401  0.95216035     0.09670
H82         H  0.13361438  0.55179114  0.86880396     0.09520
O83         O  0.88227923  0.20538352  0.12456341    -0.71000
O84         O  0.82943722  0.06099772  0.16892351    -0.71030
O85         O  0.78422477  0.10586162  0.12299595    -0.71080
O86         O  0.92759076  0.16057934  0.17017787    -0.71130
O87         O  0.89785169  0.18989241  0.21491905    -0.71060
O88         O  0.75417503  0.13504923  0.16763769    -0.71040
O89         O  0.79946643  0.09021003  0.21358478    -0.71020
O90         O  0.85228654  0.23457240  0.16923817    -0.71080
Ni91       Ni  0.85694404  0.13212829  0.14508701     1.25410
Ni92       Ni  0.82483661  0.16344884  0.19295699     1.25360
C93         C  0.87582792  0.24351117  0.13967262     0.91180
C94         C  0.80595192  0.05206519  0.19853586     0.91110
C95         C  0.74588765  0.11180365  0.13752052     0.91140
C96         C  0.93623940  0.18426804  0.20013308     0.91310
C97         C  0.26923665  0.83136617  0.42752846     0.06560
C98         C  0.25646063  0.85035194  0.39623702    -0.09590
C99         C  0.20555390  0.81650148  0.37791077     0.04060
C100        C  0.16667304  0.76366289  0.39190679    -0.08120
C101        C  0.17945768  0.74487577  0.42338131     0.06550
C102        C  0.23082914  0.77864452  0.44109448    -0.07540
H103        H  0.28666128  0.89119864  0.38582244     0.12140
H104        H  0.12630675  0.73741290  0.37889135     0.09670
H105        H  0.24090826  0.76391820  0.46532304     0.09520
C106        C  0.17780718  0.89805536  0.23955615     0.06560
C107        C  0.18959000  0.87959289  0.27147072    -0.09590
C108        C  0.15073845  0.82639170  0.28508296     0.04060
C109        C  0.10093310  0.79190460  0.26588313    -0.08120
C110        C  0.08929745  0.81056214  0.23407709     0.06550
C111        C  0.12758858  0.86363084  0.22095564    -0.07540
H112        H  0.22926319  0.90638125  0.28505712     0.12140
H113        H  0.07079456  0.75073191  0.27592310     0.09670
H114        H  0.11834966  0.87808405  0.19633757     0.09520
C115        C  0.26165547  0.40175216  0.42193118     0.06560
C116        C  0.24069443  0.36929362  0.39127595    -0.09590
C117        C  0.18669867  0.35513050  0.37762301     0.04060
C118        C  0.15411720  0.37304876  0.39536554    -0.08120
C119        C  0.17524458  0.40576107  0.42570453     0.06550
C120        C  0.22893348  0.42013586  0.43901364    -0.07540
H121        H  0.26608245  0.35457222  0.37867611     0.12140
H122        H  0.11246373  0.36227349  0.38520610     0.09670
H123        H  0.24521376  0.44557943  0.46256928     0.09520
C124        C  0.09273194  0.23720096  0.24349528     0.06560
C125        C  0.11395072  0.27019903  0.27392014    -0.09590
C126        C  0.16858009  0.28575387  0.28704755     0.04060
C127        C  0.20161837  0.26885422  0.26888963    -0.08120
C128        C  0.18034463  0.23572907  0.23870885     0.06550
C129        C  0.12596045  0.21986202  0.22599202    -0.07540
H130        H  0.08811435  0.28409174  0.28678801     0.12140
H131        H  0.24373051  0.28064402  0.27864593     0.09670
H132        H  0.10949855  0.19398406  0.20261799     0.09520
O133        O  0.41464348  0.23449658  0.17219151    -0.71000
O134        O  0.32480394  0.08972713  0.21422177    -0.71030
O135        O  0.41685017  0.13602084  0.17391355    -0.71080
O136        O  0.32251527  0.18827437  0.21215975    -0.71130
O137        O  0.26702681  0.15906965  0.16404449    -0.71060
O138        O  0.36110273  0.10688477  0.12590858    -0.71040
O139        O  0.26921560  0.06059087  0.16614984    -0.71020
O140        O  0.35911784  0.20540317  0.12408354    -0.71080
Ni141      Ni  0.37169704  0.16316029  0.19487104     1.25410
Ni142      Ni  0.31211643  0.13191039  0.14332747     1.25360
C143        C  0.40163683  0.24346545  0.14127666     0.91180
C144        C  0.28222392  0.05165844  0.19710131     0.91110
C145        C  0.40447149  0.11328624  0.14350967     0.91140
C146        C  0.27938740  0.18212749  0.19430893     0.91310
O147        O  0.08727115  0.58270914  0.49726737    -0.71000
O148        O  0.99704434  0.43801515  0.53938835    -0.71030
O149        O  0.08936582  0.48417975  0.49964711    -0.71080
O150        O  0.99502052  0.53646339  0.53722600    -0.71130
O151        O  0.93960922  0.50719211  0.48907913    -0.71060
O152        O  0.03415368  0.45485746  0.45141573    -0.71040
O153        O  0.94178919  0.40874284  0.49117366    -0.71020
O154        O  0.03202730  0.55349195  0.44905739    -0.71080
Ni155      Ni  0.04417013  0.51143074  0.52010216     1.25410
Ni156      Ni  0.98492122  0.48004553  0.46842260     1.25360
C157        C  0.07451900  0.59160207  0.46624045     0.91180
C158        C  0.95458825  0.39990256  0.52218359     0.91110
C159        C  0.07713172  0.46099416  0.46942051     0.91140
C160        C  0.95172157  0.52991806  0.51947374     0.91310
C161        C  0.76207213  0.57578990  0.57402488     0.06560
C162        C  0.79623021  0.56112710  0.55531753    -0.09590
C163        C  0.85074163  0.57718671  0.56771113     0.04060
C164        C  0.87122389  0.60774153  0.59891645    -0.08120
C165        C  0.83729088  0.62212618  0.61828526     0.06550
C166        C  0.78242509  0.60628965  0.60543062    -0.07540
H167        H  0.78045050  0.53734670  0.53112291     0.12140
H168        H  0.91356177  0.61984067  0.60834540     0.09670
H169        H  0.75584654  0.61831985  0.61914417     0.09520
C170        C  0.93082345  0.73777018  0.75356221     0.06560
C171        C  0.90997280  0.70551181  0.72280875    -0.09590
C172        C  0.85491983  0.68895395  0.71001117     0.04060
C173        C  0.82116068  0.70422588  0.72884341    -0.08120
C174        C  0.84202688  0.73655808  0.75938692     0.06550
C175        C  0.89680981  0.75337385  0.77172331    -0.07540
H176        H  0.93643287  0.69292261  0.70945839     0.12140
H177        H  0.77873192  0.69168368  0.71938535     0.09670
H178        H  0.91296094  0.77860365  0.79536670     0.09520
O179        O  0.65860279  0.75973924  0.87531798    -0.71000
O180        O  0.75284519  0.90674754  0.83735348    -0.71030
O181        O  0.65886868  0.85946392  0.87570964    -0.71080
O182        O  0.75271106  0.80713339  0.83699757    -0.71130
O183        O  0.69931592  0.78206724  0.78796715    -0.71060
O184        O  0.60542007  0.83440896  0.82670094    -0.71040
O185        O  0.69939772  0.88164207  0.78832686    -0.71020
O186        O  0.60521978  0.73471128  0.82626825    -0.71080
Ni187      Ni  0.70765855  0.83415391  0.85812050     1.25410
Ni188      Ni  0.65041832  0.80730221  0.80554808     1.25360
C189        C  0.61645463  0.72339294  0.85704317     0.91180
C190        C  0.74156821  0.91799294  0.80656192     0.91110
C191        C  0.61679850  0.85534184  0.85758205     0.91140
C192        C  0.74148259  0.78636309  0.80608426     0.91310
C193        C  0.85603054  0.25028836  0.57075683     0.06560
C194        C  0.87302498  0.24151474  0.60401388    -0.09590
C195        C  0.83918189  0.19177906  0.62252606     0.04060
C196        C  0.78716298  0.15116092  0.60744658    -0.08120
C197        C  0.77018102  0.16010888  0.57412826     0.06550
C198        C  0.80473543  0.20958311  0.55575551    -0.07540
H199        H  0.91277369  0.27349189  0.61549507     0.12140
H200        H  0.75905645  0.11342904  0.62166266     0.09670
H201        H  0.79139195  0.21674587  0.53008917     0.09520
C202        C  0.84267059  0.06876496  0.76030470     0.06560
C203        C  0.82681250  0.07769811  0.72676886    -0.09590
C204        C  0.86103895  0.12774597  0.70865056     0.04060
C205        C  0.91233141  0.16853392  0.72444237    -0.08120
C206        C  0.92812914  0.15933282  0.75806996     0.06550
C207        C  0.89318655  0.10953670  0.77600248    -0.07540
H208        H  0.78757117  0.04563522  0.71479171     0.12140
H209        H  0.94069788  0.20661047  0.71061343     0.09670
H210        H  0.90560747  0.10222126  0.80191381     0.09520
O211        O  0.92694875  0.72361881  0.15444705    -0.71000
O212        O  0.78010539  0.63055191  0.11331225    -0.71030
O213        O  0.82737342  0.72248787  0.15599734    -0.71080
O214        O  0.88004676  0.63175991  0.11178270    -0.71130
O215        O  0.85620083  0.57515332  0.15844884    -0.71060
O216        O  0.80361610  0.66572610  0.20259740    -0.71040
O217        O  0.75650349  0.57398509  0.16002151    -0.71020
O218        O  0.90303776  0.66683762  0.20107151    -0.71080
Ni219      Ni  0.85444983  0.67912230  0.13217541     1.25410
Ni220      Ni  0.82897284  0.61836970  0.18217565     1.25360
C221        C  0.93872773  0.71050063  0.18457302     0.91180
C222        C  0.74437257  0.58710522  0.13001579     0.91110
C223        C  0.80726571  0.70910056  0.18661860     0.91140
C224        C  0.87680004  0.58867114  0.12796565     0.91310
C225        C  0.59747509  0.73514474  0.42076400     0.06560
C226        C  0.62334977  0.75217893  0.38828371    -0.09590
C227        C  0.63668723  0.80571682  0.37430223     0.04060
C228        C  0.62292651  0.84103276  0.39324348    -0.08120
C229        C  0.59732805  0.82409134  0.42563414     0.06550
C230        C  0.58476065  0.77128761  0.43936023    -0.07540
H231        H  0.63156292  0.72309470  0.37391407     0.12140
H232        H  0.63221832  0.88196834  0.38275723     0.09670
H233        H  0.56450653  0.75805094  0.46432937     0.09520
C234        C  0.75823029  0.89754303  0.24267642     0.06560
C235        C  0.73218371  0.88007162  0.27505796    -0.09590
C236        C  0.71929445  0.82661209  0.28895839     0.04060
C237        C  0.73381040  0.79183701  0.27003233    -0.08120
C238        C  0.75969666  0.80925575  0.23773060     0.06550
C239        C  0.77170840  0.86197032  0.22408433    -0.07540
H240        H  0.72349587  0.90883212  0.28940988     0.12140
H241        H  0.72490594  0.75098572  0.28046005     0.09670
H242        H  0.79212898  0.87558697  0.19918757     0.09520
O243        O  0.60564796  0.06418972  0.49950139    -0.71000
O244        O  0.45911013  0.97205151  0.45785961    -0.71030
O245        O  0.50711284  0.06552419  0.49891157    -0.71080
O246        O  0.55750134  0.97069118  0.45824427    -0.71130
O247        O  0.53185364  0.91574971  0.50569090    -0.71060
O248        O  0.48141561  0.01074638  0.54643145    -0.71040
O249        O  0.43345719  0.91724319  0.50538528    -0.71020
O250        O  0.58003730  0.00939889  0.54702269    -0.71080
Ni251      Ni  0.53331040  0.02008654  0.47693430     1.25410
Ni252      Ni  0.50581657  0.96132566  0.52785662     1.25360
C253        C  0.61663264  0.05200900  0.53013213     0.91180
C254        C  0.42244909  0.92961304  0.47483297     0.91110
C255        C  0.48592087  0.05354294  0.52925914     0.91140
C256        C  0.55248454  0.92752135  0.47515959     0.91310
C257        C  0.42672337  0.23985385  0.57634399     0.06560
C258        C  0.44498081  0.20605090  0.56011133    -0.09590
C259        C  0.43122067  0.15287280  0.57380735     0.04060
C260        C  0.39913839  0.13335049  0.60381092    -0.08120
C261        C  0.38110238  0.16691893  0.62077639     0.06550
C262        C  0.39479382  0.22039733  0.60660750    -0.07540
H263        H  0.46987320  0.22111832  0.53685211     0.12140
H264        H  0.38877753  0.09209318  0.61425480     0.09670
H265        H  0.38016441  0.24659251  0.61846035     0.09520
C266        C  0.26562993  0.07928545  0.75426113     0.06560
C267        C  0.29660774  0.09879254  0.72366461    -0.09590
C268        C  0.31037178  0.15252430  0.70989089     0.04060
C269        C  0.29341185  0.18632646  0.72766907    -0.08120
C270        C  0.26238584  0.16677292  0.75810859     0.06550
C271        C  0.24847514  0.11329164  0.77132495    -0.07540
H272        H  0.31050183  0.07238711  0.71128782     0.12140
H273        H  0.30391700  0.22782449  0.71759894     0.09670
H274        H  0.22438362  0.09817729  0.79489362     0.09520
O275        O  0.11604907  0.30996870  0.79044545    -0.71000
O276        O  0.26051899  0.39838526  0.83533190    -0.71030
O277        O  0.21469737  0.30900146  0.79097298    -0.71080
O278        O  0.16182506  0.39939800  0.83512440    -0.71130
O279        O  0.13420540  0.34030558  0.88061322    -0.71060
O280        O  0.18706849  0.24989507  0.83646759    -0.71040
O281        O  0.23312758  0.33941360  0.88090956    -0.71020
O282        O  0.08837669  0.25083048  0.83593593    -0.71080
Ni283      Ni  0.18923908  0.35633023  0.81135785     1.25410
Ni284      Ni  0.15966610  0.29299140  0.86013037     1.25360
C285        C  0.07882275  0.26570408  0.80572789     0.91180
C286        C  0.27046058  0.38331995  0.86533534     0.91110
C287        C  0.20940907  0.26463878  0.80651534     0.91140
C288        C  0.13959140  0.38474869  0.86513300     0.91310
C289        C  0.24431083  0.20149959  0.77558976    -0.09840
C290        C  0.22868424  0.23045392  0.78987539    -0.11400
C291        C  0.34720392  0.14362269  0.65263788    -0.13000
C292        C  0.34357940  0.17586694  0.67774893    -0.28180
H293        H  0.32559277  0.09799292  0.65565320     0.16020
H294        H  0.36518253  0.22149925  0.67469019     0.16590
C295        C  0.45056720  0.11835743  0.55740911    -0.09840
C296        C  0.46674248  0.08891568  0.54437843    -0.11400
C297        C  0.58275932  0.86052770  0.44438990    -0.09840
C298        C  0.56959494  0.89108502  0.45914848    -0.11400
C299        C  0.66291876  0.82598806  0.33965087    -0.13000
C300        C  0.69278684  0.80599955  0.32352456    -0.28180
H301        H  0.65778741  0.85948864  0.32738966     0.16020
H302        H  0.69786806  0.77246349  0.33578738     0.16590
C303        C  0.78910133  0.74390583  0.20371657    -0.09840
C304        C  0.77510051  0.77346412  0.21891896    -0.11400
C305        C  0.02549485  0.23125052  0.78832512    -0.09840
C306        C  0.98103863  0.19990430  0.77400685    -0.11400
C307        C  0.71637530  0.11956085  0.55914022    -0.09840
C308        C  0.67099380  0.08759572  0.54606946    -0.11400
C309        C  0.85878219  0.18515685  0.65796058    -0.13000
C310        C  0.84223772  0.13456712  0.67302433    -0.28180
H311        H  0.88846228  0.22356622  0.67171646     0.16020
H312        H  0.81265685  0.09620044  0.65918513     0.16590
C313        C  0.77739428  0.97232661  0.79185570    -0.09840
C314        C  0.80741834  0.01694026  0.77817866    -0.11760
C315        C  0.80730564  0.75351263  0.77745201    -0.09840
C316        C  0.77734912  0.76806981  0.79116030    -0.11400
C317        C  0.86167399  0.65506940  0.65106959    -0.13000
C318        C  0.83046827  0.65514926  0.67752642    -0.28180
H319        H  0.90722696  0.67946075  0.65344380     0.16020
H320        H  0.78491384  0.63077631  0.67515397     0.16590
C321        C  0.88559451  0.56146670  0.54881939    -0.09840
C322        C  0.91552601  0.54762987  0.53443889    -0.11400
C323        C  0.92014262  0.34624867  0.53822431    -0.09840
C324        C  0.89082763  0.30194530  0.55250417    -0.11400
C325        C  0.24385877  0.20123708  0.20864241    -0.09840
C326        C  0.21425436  0.21694971  0.22151867    -0.11400
C327        C  0.11253971  0.44160115  0.45531452    -0.09840
C328        C  0.14181235  0.42536442  0.44260075    -0.11400
C329        C  0.16205315  0.32086770  0.34543704    -0.13000
C330        C  0.19323761  0.32007466  0.31924254    -0.28180
H331        H  0.11647790  0.29671748  0.34308357     0.16020
H332        H  0.23881934  0.34428126  0.32165959     0.16590
C333        C  0.03737681  0.77550408  0.21527848    -0.09840
C334        C  0.99288685  0.74589118  0.20055746    -0.11400
C335        C  0.21697741  0.95247203  0.22572404    -0.09840
C336        C  0.24780429  0.99784646  0.21304964    -0.11400
C337        C  0.32246736  0.86573247  0.44523697    -0.09840
C338        C  0.36784771  0.89490014  0.45912380    -0.11400
C339        C  0.10917632  0.64540746  0.45028285    -0.09840
C340        C  0.14020693  0.69070122  0.43754620    -0.11400
C341        C  0.19451953  0.83838062  0.34463319    -0.13000
C342        C  0.16099993  0.80459480  0.31865874    -0.28180
H343        H  0.21621374  0.88396297  0.34129753     0.16020
H344        H  0.13935592  0.75901056  0.32205251     0.16590
C345        C  0.99037358  0.20481190  0.21733707    -0.09840
C346        C  0.03673790  0.22056514  0.23010969    -0.11400
C347        C  0.77268534  0.95253964  0.22856127    -0.09840
C348        C  0.78693306  0.99812806  0.21531438    -0.11400
C349        C  0.10662006  0.45036286  0.89512802    -0.09840
C350        C  0.12078022  0.41935796  0.88187789    -0.11400
C351        C  0.89654039  0.55446913  0.11166481    -0.09840
C352        C  0.91197200  0.52393007  0.09918192    -0.11400
C353        C  0.91048177  0.34232560  0.10860992    -0.09840
C354        C  0.89508326  0.29741253  0.12296942    -0.11400
C355        C  0.01282032  0.50613698  0.98524804    -0.13000
C356        C  0.00981431  0.47012222  0.01077033    -0.28180
H357        H  0.99051290  0.52965732  0.98779795     0.16020
H358        H  0.03220447  0.44667790  0.00816689     0.16590
C359        C  0.58141138  0.87430371  0.87241985    -0.09840
C360        C  0.55211211  0.88987744  0.88593153    -0.11400
C361        C  0.44034208  0.09524995  0.12838939    -0.09840
C362        C  0.46995944  0.08095189  0.11403279    -0.11400
C363        C  0.69252184  0.09252514  0.11951837    -0.09840
C364        C  0.64732251  0.07814467  0.10535323    -0.11400
C365        C  0.52781438  0.98781573  0.98577195    -0.13000
C366        C  0.49587702  0.98915275  0.01139326    -0.28180
H367        H  0.57325939  0.00994115  0.98933343     0.16020
H368        H  0.45042492  0.96695086  0.00777255     0.16590
C369        C  0.03366846  0.77157598  0.77948022    -0.09840
C370        C  0.98716158  0.75526803  0.76673371    -0.11400
C371        C  0.23694012  0.97874225  0.78161974    -0.09840
C372        C  0.25107488  0.02433044  0.76843533    -0.11400
C373        C  0.12913170  0.67946456  0.87367269    -0.09840
C374        C  0.11332891  0.63443160  0.88792612    -0.11400
C375        C  0.33182926  0.88418833  0.87728262    -0.09840
C376        C  0.37688421  0.89815978  0.89158433    -0.11400
C377        C  0.36244674  0.43123388  0.44958916    -0.09840
C378        C  0.31677245  0.41663848  0.43611059    -0.11400
C379        C  0.44127238  0.29455569  0.56166804    -0.09840
C380        C  0.45571750  0.33977733  0.54782407    -0.11400
C381        C  0.70626258  0.55943498  0.56049843    -0.09840
C382        C  0.66032565  0.54389975  0.54715517    -0.11400
C383        C  0.56743599  0.63476454  0.44889305    -0.09840
C384        C  0.58238914  0.68009161  0.43506809    -0.11400
C385        C  0.37122261  0.44687811  0.89410555    -0.09840
C386        C  0.32484025  0.41673907  0.88171918    -0.11400
C387        C  0.55052804  0.62407299  0.88504828    -0.09840
C388        C  0.58060901  0.66892396  0.87162127    -0.11400
C389        C  0.64292020  0.52090051  0.10291937    -0.09840
C390        C  0.68940614  0.55197818  0.11482901    -0.11400
C391        C  0.43586748  0.29729487  0.12540771    -0.09840
C392        C  0.46505027  0.34200760  0.11153544    -0.11400
C393        C  0.49065500  0.46762344  0.01154171    -0.13000
C394        C  0.52347665  0.49906471  0.98550017    -0.28180
H395        H  0.44521563  0.44782240  0.00852243     0.16020
H396        H  0.56891368  0.51878464  0.98855037     0.16590
loop_ 
_geom_bond_atom_site_label_1 
_geom_bond_atom_site_label_2 
_geom_bond_distance 
_geom_bond_site_symmetry_2 
_ccdc_geom_bond_type 
C1            C2   1.400       .  A
C1            C6   1.399       .  A
C1          C389   1.437       .  S
C2            C3   1.409       .  A
C2            H7   1.083       .  S
C3            C4   1.401       .  A
C3          C393   1.480       .  S
C4            C5   1.397       .  A
C4            H8   1.085       .  S
C5            C6   1.398       .  A
C5          C392   1.435       .  S
C6            H9   1.085       .  S
C10          C11   1.400       .  A
C10          C15   1.399       .  A
C10         C385   1.437       .  S
C11          C12   1.409       .  A
C11          H16   1.082       .  S
C12          C13   1.401       .  A
C12         C394   1.480       .  S
C13          C14   1.397       .  A
C13          H17   1.085       .  S
C14          C15   1.398       .  A
C14         C387   1.434       .  S
C15          H18   1.085       .  S
O19         Ni27   1.922       .  S
O19          C29   1.280       .  A
O20         Ni27   1.921       .  S
O20          C30   1.280       .  A
O21         Ni27   1.920       .  S
O21          C31   1.280       .  A
O22         Ni27   1.919       .  S
O22          C32   1.280       .  A
O23         Ni28   1.919       .  S
O23          C32   1.279       .  A
O24         Ni28   1.917       .  S
O24          C31   1.280       .  A
O25         Ni28   1.923       .  S
O25          C30   1.281       .  A
O26         Ni28   1.922       .  S
O26          C29   1.281       .  A
Ni27        Ni28   2.393       .  S
C29         C383   1.440       .  S
C30         C380   1.440       .  S
C31         C377   1.436       .  S
C32         C382   1.436       .  S
O33         Ni41   1.919       .  S
O33          C43   1.280       .  A
O34         Ni41   1.921       .  S
O34          C44   1.280       .  A
O35         Ni41   1.922       .  S
O35          C45   1.281       .  A
O36         Ni41   1.923       .  S
O36          C46   1.281       .  A
O37         Ni42   1.918       .  S
O37          C46   1.280       .  A
O38         Ni42   1.920       .  S
O38          C45   1.280       .  A
O39         Ni42   1.920       .  S
O39          C44   1.280       .  A
O40         Ni42   1.919       .  S
O40          C43   1.280       .  A
Ni41        Ni42   2.393       .  S
C43         C373   1.436       .  S
C44         C371   1.439       .  S
C45         C375   1.439       .  S
C46         C369   1.438       .  S
C47          C48   1.399       .  A
C47          C52   1.405       .  A
C47         C364   1.442       .  S
C48          C49   1.397       .  A
C48          H53   1.085       .  S
C49          C50   1.399       .  A
C49         C362   1.437       .  S
C50          C51   1.404       .  A
C50          H54   1.085       .  S
C51          C52   1.414       .  A
C51         C366   1.489   1_545  S
C52          H55   1.082       .  S
C56          C57   1.400       .  A
C56          C61   1.405       .  A
C56         C376   1.444       .  S
C57          C58   1.398       .  A
C57          H62   1.085       .  S
C58          C59   1.398       .  A
C58         C360   1.438       .  S
C59          C60   1.403       .  A
C59          H63   1.085       .  S
C60          C61   1.413       .  A
C60         C365   1.488       .  S
C61          H64   1.082       .  S
C65          C66   1.400       .  A
C65          C70   1.399       .  A
C65         C353   1.441       .  S
C66          C67   1.405       .  A
C66          H71   1.085       .  S
C67          C68   1.413       .  A
C67         C356   1.490   1_655  S
C68          C69   1.404       .  A
C68          H72   1.082       .  S
C69          C70   1.400       .  A
C69         C352   1.444       .  S
C70          H73   1.085       .  S
C74          C75   1.400       .  A
C74          C79   1.398       .  A
C74         C374   1.441       .  S
C75          C76   1.405       .  A
C75          H80   1.085       .  S
C76          C77   1.413       .  A
C76         C355   1.490       .  S
C77          C78   1.405       .  A
C77          H81   1.082       .  S
C78          C79   1.400       .  A
C78         C349   1.444       .  S
C79          H82   1.085       .  S
O83         Ni91   1.920       .  S
O83          C93   1.280       .  A
O84         Ni91   1.921       .  S
O84          C94   1.281       .  A
O85         Ni91   1.918       .  S
O85          C95   1.279       .  A
O86         Ni91   1.917       .  S
O86          C96   1.279       .  A
O87         Ni92   1.922       .  S
O87          C96   1.281       .  A
O88         Ni92   1.921       .  S
O88          C95   1.281       .  A
O89         Ni92   1.921       .  S
O89          C94   1.280       .  A
O90         Ni92   1.919       .  S
O90          C93   1.280       .  A
Ni91        Ni92   2.393       .  S
C93         C354   1.436       .  S
C94         C348   1.439   1_545  S
C95         C363   1.437       .  S
C96         C345   1.437       .  S
C97          C98   1.398       .  A
C97         C102   1.398       .  A
C97         C337   1.436       .  S
C98          C99   1.402       .  A
C98         H103   1.085       .  S
C99         C100   1.410       .  A
C99         C341   1.481       .  S
C100        C101   1.401       .  A
C100        H104   1.083       .  S
C101        C102   1.399       .  A
C101        C340   1.438       .  S
C102        H105   1.085       .  S
C106        C107   1.401       .  A
C106        C111   1.398       .  A
C106        C335   1.437       .  S
C107        C108   1.410       .  A
C107        H112   1.082       .  S
C108        C109   1.402       .  A
C108        C342   1.482       .  S
C109        C110   1.398       .  A
C109        H113   1.085       .  S
C110        C111   1.397       .  A
C110        C333   1.435       .  S
C111        H114   1.085       .  S
C115        C116   1.403       .  A
C115        C120   1.400       .  A
C115        C378   1.441       .  S
C116        C117   1.411       .  A
C116        H121   1.083       .  S
C117        C118   1.401       .  A
C117        C329   1.482       .  S
C118        C119   1.397       .  A
C118        H122   1.085       .  S
C119        C120   1.398       .  A
C119        C328   1.435       .  S
C120        H123   1.085       .  S
C124        C125   1.403       .  A
C124        C129   1.400       .  A
C124        C346   1.442       .  S
C125        C126   1.412       .  A
C125        H130   1.082       .  S
C126        C127   1.401       .  A
C126        C330   1.483       .  S
C127        C128   1.397       .  A
C127        H131   1.085       .  S
C128        C129   1.399       .  A
C128        C326   1.436       .  S
C129        H132   1.085       .  S
O133       Ni141   1.913       .  S
O133        C143   1.279       .  A
O134       Ni141   1.915       .  S
O134        C144   1.279       .  A
O135       Ni141   1.918       .  S
O135        C145   1.280       .  A
O136       Ni141   1.917       .  S
O136        C146   1.280       .  A
O137       Ni142   1.913       .  S
O137        C146   1.278       .  A
O138       Ni142   1.913       .  S
O138        C145   1.279       .  A
O139       Ni142   1.915       .  S
O139        C144   1.280       .  A
O140       Ni142   1.915       .  S
O140        C143   1.279       .  A
Ni141      Ni142   2.395       .  S
C143        C391   1.430       .  S
C144        C336   1.432   1_545  S
C145        C361   1.432       .  S
C146        C325   1.431       .  S
O147       Ni155   1.915       .  S
O147        C157   1.279       .  A
O148       Ni155   1.915   1_655  S
O148        C158   1.279       .  A
O149       Ni155   1.913       .  S
O149        C159   1.278       .  A
O150       Ni155   1.913   1_655  S
O150        C160   1.279       .  A
O151       Ni156   1.917       .  S
O151        C160   1.280       .  A
O152       Ni156   1.916   1_455  S
O152        C159   1.280       .  A
O153       Ni156   1.915       .  S
O153        C158   1.279       .  A
O154       Ni156   1.917   1_455  S
O154        C157   1.279       .  A
Ni155      Ni156   2.395   1_455  S
C157        C339   1.433       .  S
C158        C323   1.430       .  S
C159        C327   1.430       .  S
C160        C322   1.431       .  S
C161        C162   1.399       .  A
C161        C166   1.404       .  A
C161        C381   1.441       .  S
C162        C163   1.397       .  A
C162        H167   1.085       .  S
C163        C164   1.398       .  A
C163        C321   1.436       .  S
C164        C165   1.403       .  A
C164        H168   1.085       .  S
C165        C166   1.412       .  A
C165        C317   1.486       .  S
C166        H169   1.082       .  S
C170        C171   1.404       .  A
C170        C175   1.401       .  A
C170        C370   1.443       .  S
C171        C172   1.412       .  A
C171        H176   1.082       .  S
C172        C173   1.403       .  A
C172        C318   1.486       .  S
C173        C174   1.398       .  A
C173        H177   1.085       .  S
C174        C175   1.399       .  A
C174        C315   1.438       .  S
C175        H178   1.085       .  S
O179       Ni187   1.914       .  S
O179        C189   1.279       .  A
O180       Ni187   1.914       .  S
O180        C190   1.279       .  A
O181       Ni187   1.916       .  S
O181        C191   1.279       .  A
O182       Ni187   1.916       .  S
O182        C192   1.279       .  A
O183       Ni188   1.917       .  S
O183        C192   1.280       .  A
O184       Ni188   1.917       .  S
O184        C191   1.280       .  A
O185       Ni188   1.912       .  S
O185        C190   1.279       .  A
O186       Ni188   1.913       .  S
O186        C189   1.278       .  A
Ni187      Ni188   2.395       .  S
C189        C388   1.429       .  S
C190        C313   1.429       .  S
C191        C359   1.433       .  S
C192        C316   1.433       .  S
C193        C194   1.398       .  A
C193        C198   1.398       .  A
C193        C324   1.435       .  S
C194        C195   1.402       .  A
C194        H199   1.085       .  S
C195        C196   1.410       .  A
C195        C309   1.483       .  S
C196        C197   1.401       .  A
C196        H200   1.082       .  S
C197        C198   1.399       .  A
C197        C307   1.439       .  S
C198        H201   1.085       .  S
C202        C203   1.397       .  A
C202        C207   1.397       .  A
C202        C314   1.434       .  S
C203        C204   1.402       .  A
C203        H208   1.085       .  S
C204        C205   1.411       .  A
C204        C310   1.482       .  S
C205        C206   1.402       .  A
C205        H209   1.082       .  S
C206        C207   1.398       .  A
C206        C306   1.438       .  S
C207        H210   1.085       .  S
O211       Ni219   1.916       .  S
O211        C221   1.279       .  A
O212       Ni219   1.918       .  S
O212        C222   1.280       .  A
O213       Ni219   1.922       .  S
O213        C223   1.281       .  A
O214       Ni219   1.923       .  S
O214        C224   1.281       .  A
O215       Ni220   1.919       .  S
O215        C224   1.280       .  A
O216       Ni220   1.918       .  S
O216        C223   1.280       .  A
O217       Ni220   1.913       .  S
O217        C222   1.279       .  A
O218       Ni220   1.912       .  S
O218        C221   1.279       .  A
Ni219      Ni220   2.394       .  S
C221        C334   1.429       .  S
C222        C390   1.432       .  S
C223        C303   1.437       .  S
C224        C351   1.439       .  S
C225        C226   1.406       .  A
C225        C230   1.400       .  A
C225        C384   1.445       .  S
C226        C227   1.414       .  A
C226        H231   1.082       .  S
C227        C228   1.406       .  A
C227        C299   1.492       .  S
C228        C229   1.400       .  A
C228        H232   1.085       .  S
C229        C230   1.398       .  A
C229        C297   1.441       .  S
C230        H233   1.085       .  S
C234        C235   1.405       .  A
C234        C239   1.400       .  A
C234        C347   1.445       .  S
C235        C236   1.414       .  A
C235        H240   1.082       .  S
C236        C237   1.406       .  A
C236        C300   1.493       .  S
C237        C238   1.401       .  A
C237        H241   1.084       .  S
C238        C239   1.398       .  A
C238        C304   1.442       .  S
C239        H242   1.085       .  S
O243       Ni251   1.916       .  S
O243        C253   1.279       .  A
O244       Ni251   1.915   1_565  S
O244        C254   1.279       .  A
O245       Ni251   1.917       .  S
O245        C255   1.279       .  A
O246       Ni251   1.917   1_565  S
O246        C256   1.279       .  A
O247       Ni252   1.921       .  S
O247        C256   1.280       .  A
O248       Ni252   1.920   1_545  S
O248        C255   1.280       .  A
O249       Ni252   1.915       .  S
O249        C254   1.279       .  A
O250       Ni252   1.917   1_545  S
O250        C253   1.279       .  A
Ni251      Ni252   2.394   1_545  S
C253        C308   1.433       .  S
C254        C338   1.431       .  S
C255        C296   1.435       .  S
C256        C298   1.436       .  S
C257        C258   1.401       .  A
C257        C262   1.405       .  A
C257        C379   1.445       .  S
C258        C259   1.399       .  A
C258        H263   1.085       .  S
C259        C260   1.399       .  A
C259        C295   1.440       .  S
C260        C261   1.405       .  A
C260        H264   1.085       .  S
C261        C262   1.413       .  A
C261        C291   1.489       .  S
C262        H265   1.082       .  S
C266        C267   1.404       .  A
C266        C271   1.400       .  A
C266        C372   1.444       .  S
C267        C268   1.413       .  A
C267        H272   1.082       .  S
C268        C269   1.405       .  A
C268        C292   1.490       .  S
C269        C270   1.400       .  A
C269        H273   1.085       .  S
C270        C271   1.399       .  A
C270        C289   1.441       .  S
C271        H274   1.085       .  S
O275       Ni283   1.915       .  S
O275        C285   1.279       .  A
O276       Ni283   1.913       .  S
O276        C286   1.279       .  A
O277       Ni283   1.919       .  S
O277        C287   1.280       .  A
O278       Ni283   1.920       .  S
O278        C288   1.281       .  A
O279       Ni284   1.920       .  S
O279        C288   1.280       .  A
O280       Ni284   1.919       .  S
O280        C287   1.280       .  A
O281       Ni284   1.918       .  S
O281        C286   1.280       .  A
O282       Ni284   1.917       .  S
O282        C285   1.280       .  A
Ni283      Ni284   2.394       .  S
C285        C305   1.433       .  S
C286        C386   1.432       .  S
C287        C290   1.436       .  S
C288        C350   1.439       .  S
C289        C290   1.206       .  T
C291        C292   1.347       .  D
C291        H293   1.085       .  S
C292        H294   1.085       .  S
C295        C296   1.206       .  T
C297        C298   1.206       .  T
C299        C300   1.348       .  D
C299        H301   1.084       .  S
C300        H302   1.084       .  S
C303        C304   1.207       .  T
C305        C306   1.205   1_455  T
C307        C308   1.205       .  T
C309        C310   1.344       .  D
C309        H311   1.085       .  S
C310        H312   1.085       .  S
C313        C314   1.202   1_565  T
C315        C316   1.205       .  T
C317        C318   1.345       .  D
C317        H319   1.085       .  S
C318        H320   1.085       .  S
C321        C322   1.203       .  T
C323        C324   1.203       .  T
C325        C326   1.204       .  T
C327        C328   1.203       .  T
C329        C330   1.343       .  D
C329        H331   1.085       .  S
C330        H332   1.086       .  S
C333        C334   1.203   1_455  T
C335        C336   1.204       .  T
C337        C338   1.203       .  T
C339        C340   1.205       .  T
C341        C342   1.344       .  D
C341        H343   1.085       .  S
C342        H344   1.085       .  S
C345        C346   1.207   1_655  T
C347        C348   1.209       .  T
C349        C350   1.208       .  T
C351        C352   1.208       .  T
C353        C354   1.207       .  T
C355        C356   1.347   1_556  D
C355        H357   1.084   1_455  S
C356        H358   1.085       .  S
C359        C360   1.205       .  T
C361        C362   1.204       .  T
C363        C364   1.207       .  T
C365        C366   1.345   1_556  D
C365        H367   1.085   1_565  S
C366        H368   1.085       .  S
C369        C370   1.208   1_455  T
C371        C372   1.208   1_565  T
C373        C374   1.206       .  T
C375        C376   1.208       .  T
C377        C378   1.207       .  T
C379        C380   1.209       .  T
C381        C382   1.206       .  T
C383        C384   1.209       .  T
C385        C386   1.204       .  T
C387        C388   1.203       .  T
C389        C390   1.204       .  T
C391        C392   1.203       .  T
C393        C394   1.344   1_554  D
C393        H395   1.085       .  S
C394        H396   1.085       .  S
