geometry optimzed in LAMMPS
_audit_creation_date              2020-11-30 
_audit_creation_method            'lammps2cif' 
_symmetry_space_group_name_H-M    'P1' 
_symmetry_Int_Tables_number       1 
_symmetry_cell_setting            triclinic 
loop_ 
_symmetry_equiv_pos_as_xyz 
  x,y,z 
_cell_length_a                    40.66203181 
_cell_length_b                    47.86777536854818 
_cell_length_c                    35.85661767919076 
_cell_angle_alpha                 98.64464290432625 
_cell_angle_beta                  102.65434587637567 
_cell_angle_gamma                 94.6229232330421 
loop_ 
_atom_site_label 
_atom_site_type_symbol 
_atom_site_fract_x 
_atom_site_fract_y 
_atom_site_fract_z 
_atom_site_charge 
O1          O  0.43842239  0.17364250  0.44437609    -0.80700
O2          O  0.45857668  0.31066927  0.45609933    -0.65400
O3          O  0.96477029  0.22691701  0.43912412    -1.12000
C4          C  0.04360140  0.24522738  0.09870557     1.06200
O5          O  0.04543392  0.32493067  0.03595414    -0.78600
O6          O  0.08612601  0.28157709  0.03622177    -0.66200
Ni7        Ni  0.42776985  0.20260720  0.41206159     1.34900
C8          C  0.08873636  0.25726183  0.01771102     0.85000
O9          O  0.44112827  0.27067516  0.39260436    -0.79100
O10         O  0.41510250  0.22822220  0.37654168    -0.89400
C11         C  0.98606711  0.32362643  0.46450438     0.84500
O12         O  0.39782857  0.21738545  0.44316700    -0.67600
O13         O  0.06489249  0.26638668  0.09925066    -0.86900
C14         C  0.39344379  0.24291925  0.45569727     0.85400
C15         C  0.43691581  0.24676364  0.37133711     1.06900
H16         H  0.50097720  0.27258594  0.05793236     0.38700
O17         O  0.51847237  0.27160169  0.04360453    -1.09500
O18         O  0.06621373  0.23583582  0.01150261    -0.66200
Ni19       Ni  0.02108601  0.22915387  0.02078162     1.26300
O20         O  0.41410276  0.26467061  0.45560154    -0.66400
O21         O  0.04021293  0.22386397  0.07235155    -0.78700
C22         C  0.50024571  0.17532722  0.99939773     0.84700
O23         O  0.02237386  0.18990354  0.00327413    -0.65900
Ni24       Ni  0.05453107  0.29443795  0.06616736     1.27400
Ni25       Ni  0.45976103  0.27033223  0.44615699     1.26100
H26         H  0.98213152  0.22334089  0.42508997     0.39300
O27         O  0.45499532  0.17367352  0.21332713    -0.80700
O28         O  0.47793747  0.30680975  0.24231335    -0.65400
O29         O  0.98537712  0.23093277  0.20772924    -1.12000
C30         C  0.02256904  0.23826103  0.33660574     1.06200
O31         O  0.03748676  0.31677931  0.27267009    -0.78600
O32         O  0.07428519  0.27187360  0.28645347    -0.66200
Ni33       Ni  0.44910625  0.20233995  0.17966467     1.34900
C34         C  0.07505651  0.24989068  0.26178934     0.85000
O35         O  0.45927989  0.27169901  0.17452344    -0.79100
O36         O  0.44213012  0.22834163  0.14276996    -0.89400
C37         C  0.01133258  0.32675591  0.25477877     0.84500
O38         O  0.41459595  0.21667011  0.20407795    -0.67600
O39         O  0.03935922  0.26291936  0.34431151    -0.86900
C40         C  0.41290067  0.24000871  0.22554415     0.85400
C41         C  0.46036660  0.25207507  0.14734140     1.06900
H42         H  0.48298931  0.26228661  0.29002355     0.38700
O43         O  0.50081905  0.26183866  0.27616880    -1.09500
O44         O  0.04954890  0.23123582  0.24714037    -0.66200
Ni45       Ni  0.00526464  0.22463631  0.25788861     1.26300
O46         O  0.43668232  0.26043096  0.23605802    -0.66400
O47         O  0.02646232  0.22028616  0.30890727    -0.78700
C48         C  0.48246785  0.16578993  0.23163026     0.84700
O49         O  0.00646821  0.18535455  0.24093139    -0.65900
Ni50       Ni  0.03844088  0.28845899  0.30678918     1.27400
Ni51       Ni  0.48067338  0.26770117  0.22573077     1.26100
H52         H  0.00257050  0.22922746  0.19302427     0.39300
O53         O  0.19109584  0.17208446  0.44178064    -0.80700
O54         O  0.20496823  0.30845148  0.45163246    -0.65400
O55         O  0.21667350  0.22854295  0.43619361    -1.12000
C56         C  0.29294095  0.24544456  0.09996776     1.06200
O57         O  0.29734573  0.32504900  0.03625875    -0.78600
O58         O  0.33685504  0.28067935  0.03726688    -0.66200
Ni59       Ni  0.17956606  0.20013037  0.40845588     1.34900
C60         C  0.33941411  0.25603130  0.01963338     0.85000
O61         O  0.19022886  0.26811206  0.38820063    -0.79100
O62         O  0.16578774  0.22507475  0.37234334    -0.89400
C63         C  0.23225591  0.32531103  0.46540497     0.84500
O64         O  0.14844864  0.21372809  0.43849201    -0.67600
O65         O  0.31448007  0.26641867  0.10028705    -0.86900
C66         C  0.14284835  0.23894694  0.45057945     0.85400
C67         C  0.18695754  0.24414014  0.36720465     1.06900
H68         H  0.24974749  0.27064501  0.05154478     0.38700
O69         O  0.26678718  0.26923842  0.03657881    -1.09500
O70         O  0.31655021  0.23485903  0.01374504    -0.66200
Ni71       Ni  0.27075029  0.22932498  0.02181105     1.26300
O72         O  0.16259093  0.26123678  0.45046688    -0.66400
O73         O  0.28862964  0.22398410  0.07356515    -0.78700
C74         C  0.24317666  0.17331843  0.98945112     0.84700
O75         O  0.27063927  0.18962597  0.00468681    -0.65900
Ni76       Ni  0.30528502  0.29444765  0.06680682     1.27400
Ni77       Ni  0.20836587  0.26841609  0.44209810     1.26100
H78         H  0.23519511  0.22612245  0.42364586     0.39300
O79         O  0.20838493  0.17235010  0.20790080    -0.80700
O80         O  0.22843371  0.30706448  0.24130391    -0.65400
O81         O  0.23702944  0.22876277  0.20890588    -1.12000
C82         C  0.27624112  0.23756767  0.33750376     1.06200
O83         O  0.28249632  0.31639270  0.27338434    -0.78600
O84         O  0.32344280  0.27399501  0.28458479    -0.66200
Ni85       Ni  0.19963293  0.20273811  0.17746376     1.34900
C86         C  0.32531484  0.25154524  0.26143668     0.85000
O87         O  0.21187781  0.27336727  0.17251239    -0.79100
O88         O  0.18976711  0.23052496  0.14379125    -0.89400
C89         C  0.25492830  0.32450652  0.25576129     0.84500
O90         O  0.16651928  0.21502744  0.20583483    -0.67600
O91         O  0.29366629  0.26184159  0.34409581    -0.86900
C92         C  0.16348544  0.23896417  0.22514374     0.85400
C93         C  0.21028275  0.25255953  0.14591925     1.06900
H94         H  0.23270485  0.26199736  0.28799083     0.38700
O95         O  0.25066293  0.26177857  0.27430144    -1.09500
O96         O  0.30128609  0.23145899  0.24860693    -0.66200
Ni97       Ni  0.25765179  0.22288350  0.25920028     1.26300
O98         O  0.18600231  0.26047348  0.23268799    -0.66400
O99         O  0.27976574  0.21901745  0.31027401    -0.78700
C100        C  0.23631759  0.16568679  0.22697207     0.84700
O101        O  0.26171261  0.18417749  0.24219773    -0.65900
Ni102      Ni  0.28762654  0.28787288  0.30715090     1.27400
Ni103      Ni  0.23108286  0.26812407  0.22394966     1.26100
H104        H  0.25439559  0.22820660  0.19435453     0.39300
O105        O  0.00929227  0.04578296  0.50806606    -0.74200
O106        O  0.01750320  0.46164999  0.49392921    -0.74200
O107        O  0.01844993  0.50303641  0.44956006    -0.74300
O108        O  0.02019280  0.50982584  0.05860065    -0.74300
O109        O  0.47404134  0.99876106  0.05110998    -0.74300
O110        O  0.46393272  0.99380181  0.44271866    -0.74300
O111        O  0.47412035  0.45747072  0.99084872    -0.74200
O112        O  0.47160114  0.04002290  0.00492158    -0.74300
Ni113      Ni  0.01965878  0.50234966  0.50403409     1.25400
Ni114      Ni  0.46766565  0.99933631  0.99571456     1.25400
C115        C  0.99643926  0.05450161  0.00579297     0.88000
C116        C  0.98910797  0.44564845  0.48251156     0.87900
C117        C  0.99029725  0.50038802  0.42383245     0.87900
C118        C  0.00222153  0.00140699  0.07224488     0.88100
O119        O  0.04489500  0.46313144  0.25315555    -0.74200
O120        O  0.02050349  0.04369216  0.25673127    -0.74200
O121        O  0.04483821  0.50380675  0.31457095    -0.74300
O122        O  0.04565453  0.50414809  0.20685655    -0.74300
O123        O  0.46429298  0.98599595  0.18990454    -0.74300
O124        O  0.47438516  0.99367131  0.30084334    -0.74300
O125        O  0.46364317  0.02971045  0.24705622    -0.74200
O126        O  0.46945036  0.45327843  0.23710238    -0.74300
Ni127      Ni  0.04723015  0.50398002  0.26131902     1.25400
Ni128      Ni  0.46757535  0.98943869  0.24497750     1.25400
C129        C  0.01648795  0.44711060  0.24386326     0.88000
C130        C  0.99051790  0.05117617  0.25154134     0.87900
C131        C  0.00697418  0.00354862  0.32513286     0.87900
C132        C  0.01768010  0.50252110  0.18119685     0.88100
O133        O  0.20743948  0.99787342  0.04244483    -0.74200
O134        O  0.21298706  0.99541508  0.44168453    -0.74200
O135        O  0.22716995  0.45689859  0.99056407    -0.74300
O136        O  0.21006934  0.03805833  0.99533087    -0.74300
O137        O  0.26912861  0.04942131  0.50613368    -0.74300
O138        O  0.26275922  0.46339636  0.49520517    -0.74300
O139        O  0.26260521  0.50252960  0.44741164    -0.74200
O140        O  0.28090401  0.51168786  0.05831667    -0.74300
Ni141      Ni  0.20708415  0.99729335  0.98823364     1.25400
Ni142      Ni  0.26564978  0.50408839  0.50253196     1.25400
C143        C  0.23504228  0.99925400  0.06856001     0.88000
C144        C  0.23385668  0.49950761  0.42272321     0.87900
C145        C  0.23419731  0.44762051  0.48592846     0.87900
C146        C  0.23866187  0.05376287  0.00441059     0.88100
O147        O  0.22909105  0.99474225  0.29829336    -0.74200
O148        O  0.23011341  0.98872748  0.18882963    -0.74200
O149        O  0.22099543  0.45342293  0.23748227    -0.74300
O150        O  0.22346277  0.03098795  0.24458453    -0.74300
O151        O  0.27958827  0.04220763  0.26027236    -0.74300
O152        O  0.27718425  0.45890239  0.24547217    -0.74300
O153        O  0.27216213  0.49869763  0.19705890    -0.74200
O154        O  0.28179771  0.49995226  0.30771902    -0.74300
Ni155      Ni  0.22760677  0.99105603  0.24287777     1.25400
Ni156      Ni  0.27930750  0.49930010  0.25280966     1.25400
C157        C  0.25724455  0.00164981  0.32406463     0.88000
C158        C  0.24215642  0.49609170  0.17481929     0.87900
C159        C  0.24937469  0.44289523  0.24088727     0.87900
C160        C  0.24960820  0.04952165  0.25136073     0.88100
C161        C  0.23167634  0.49819268  0.38033785    -0.16200
C162        C  0.25930170  0.00379590  0.36670674    -0.31400
H163        H  0.20800014  0.99098643  0.36522070     0.12800
H164        H  0.28414956  0.50123205  0.38248928     0.13400
C165        C  0.23282260  0.99707809  0.10934837    -0.16200
C166        C  0.23648990  0.49674023  0.13217724    -0.31400
H167        H  0.28625576  0.51266914  0.13248702     0.12800
H168        H  0.28490934  0.99598982  0.13180093     0.13400
C169        C  0.98952491  0.50013230  0.38169556    -0.16200
C170        C  0.01169451  0.00459774  0.36810560    -0.31400
H171        H  0.45896884  0.49916801  0.36428837     0.12800
H172        H  0.03639757  0.01289662  0.38689593     0.13400
C173        C  0.00855278  0.00121549  0.11512943    -0.16200
C174        C  0.01915803  0.50444898  0.13997211    -0.31400
H175        H  0.96670332  0.50330555  0.11756783     0.12800
H176        H  0.45868490  0.98527898  0.11554875     0.13400
C177        C  0.27340345  0.10063557  0.25975505    -0.13100
C178        C  0.24543761  0.07949508  0.24702670     0.09000
C179        C  0.21427604  0.08689439  0.22747123    -0.13100
C180        C  0.21125796  0.11474567  0.22052520    -0.13100
C181        C  0.23927038  0.13587490  0.23324897     0.09000
C182        C  0.27035007  0.12843964  0.25307080    -0.13100
H183        H  0.29782245  0.09565884  0.27469660     0.13000
H184        H  0.19236034  0.07101235  0.21681372     0.13800
H185        H  0.18698030  0.11971660  0.20521263     0.13000
H186        H  0.29251540  0.14410601  0.26336122     0.13000
C187        C  0.28326650  0.37408873  0.26195464    -0.13100
C188        C  0.25372980  0.35461156  0.25061709     0.09000
C189        C  0.22277992  0.36418423  0.23430769    -0.13100
C190        C  0.22129865  0.39270933  0.23025398    -0.13100
C191        C  0.25080459  0.41219698  0.24192447     0.09000
C192        C  0.28184491  0.40250010  0.25747829    -0.13100
H193        H  0.30748149  0.36744136  0.27451274     0.13000
H194        H  0.19951434  0.34971071  0.22516938     0.13000
H195        H  0.19703917  0.39955257  0.21831755     0.13000
H196        H  0.30502530  0.41706224  0.26719580     0.13000
C197        C  0.20945772  0.09669084  0.98972157    -0.13100
C198        C  0.23946619  0.08482251  0.00339941     0.09000
C199        C  0.27049700  0.10248650  0.01295490    -0.13100
C200        C  0.27155438  0.13114150  0.00869922    -0.13100
C201        C  0.24164215  0.14291525  0.99445627     0.09000
C202        C  0.21054409  0.12533530  0.98517339    -0.13100
H203        H  0.18063781  0.07407130  0.46434285     0.13000
H204        H  0.29412453  0.09406840  0.02319337     0.13000
H205        H  0.29598443  0.14399032  0.01604268     0.13000
H206        H  0.17166722  0.12107803  0.44824224     0.13000
C207        C  0.29311204  0.41137003  0.01719687    -0.13100
C208        C  0.23353420  0.41627893  0.47969151     0.09000
C209        C  0.20266380  0.39843401  0.46558870    -0.13100
C210        C  0.20218004  0.36881481  0.45976265    -0.13100
C211        C  0.23253850  0.35647921  0.46811296     0.09000
C212        C  0.29592631  0.38319412  0.02325650    -0.13100
H213        H  0.31514946  0.42711949  0.02799036     0.13000
H214        H  0.17883214  0.40734399  0.45915740     0.13000
H215        H  0.17801568  0.35560094  0.44943295     0.13000
H216        H  0.32019023  0.37787854  0.03808564     0.13000
C217        C  0.24428809  0.23554431  0.34804916    -0.13100
C218        C  0.21646520  0.23677695  0.35418957    -0.14600
C219        C  0.23952970  0.25047553  0.12973939    -0.13100
C220        C  0.26546286  0.24925599  0.11873939    -0.14600
C221        C  0.01286886  0.12898215  0.24831735    -0.13100
C222        C  0.48315556  0.13586098  0.23867464     0.09000
C223        C  0.45436846  0.11546598  0.22463351    -0.13100
C224        C  0.45586901  0.08711341  0.23033170    -0.13100
C225        C  0.48625160  0.07850444  0.24994820     0.09000
C226        C  0.01534662  0.10126254  0.25530652    -0.13100
H227        H  0.03605860  0.14337573  0.25419499     0.13000
H228        H  0.43083367  0.12128532  0.20865636     0.13000
H229        H  0.43363386  0.07173784  0.21818880     0.13000
H230        H  0.04035606  0.09530545  0.26609770     0.13000
C231        C  0.47120189  0.36425113  0.23694333    -0.13100
C232        C  0.01337568  0.35729147  0.25005854     0.09000
C233        C  0.04406266  0.37544702  0.26350838    -0.13100
C234        C  0.04539433  0.40432547  0.26001043    -0.13100
C235        C  0.01602219  0.41586474  0.24325900     0.09000
C236        C  0.46952400  0.39264802  0.23211574    -0.13100
H237        H  0.44783168  0.34994911  0.22971495     0.13000
H238        H  0.06700942  0.36743624  0.27720695     0.13000
H239        H  0.06926837  0.41780674  0.27152762     0.13000
H240        H  0.44499810  0.39955637  0.22154490     0.13000
C241        C  0.35648579  0.24814293  0.24921585    -0.13100
C242        C  0.38216279  0.24399976  0.23847109    -0.14600
C243        C  0.13255853  0.24224164  0.23883223    -0.13100
C244        C  0.10653908  0.24577544  0.24964635    -0.14600
C245        C  0.02647996  0.13161237  0.00540133    -0.13100
C246        C  0.50013692  0.14500544  0.00454979     0.09000
C247        C  0.46954783  0.12688159  0.99606490    -0.13100
C248        C  0.46958329  0.09814941  0.99965339    -0.13100
C249        C  0.50024238  0.08663550  0.01133552     0.09000
C250        C  0.02689703  0.10315313  0.01023795    -0.13100
H251        H  0.05045652  0.14475103  0.00998714     0.13000
H252        H  0.44551789  0.13484298  0.98630769     0.13000
H253        H  0.42820833  0.07521431  0.46990458     0.13000
H254        H  0.05111008  0.09504056  0.01812841     0.13000
C255        C  0.45935683  0.37113909  0.46198633    -0.13100
C256        C  0.98705668  0.35460686  0.46502930     0.09000
C257        C  0.01817780  0.37224510  0.47699666    -0.13100
C258        C  0.03796529  0.41065040  0.01654674    -0.13100
C259        C  0.98861572  0.41435620  0.47503056     0.09000
C260        C  0.46154327  0.40078146  0.46681079    -0.13100
H261        H  0.43453357  0.35888345  0.45420185     0.13000
H262        H  0.06708037  0.37741771  0.03444292     0.13000
H263        H  0.06008084  0.42641250  0.02469134     0.13000
H264        H  0.43822544  0.41057653  0.46220224     0.13000
C265        C  0.36284661  0.24730902  0.47000114    -0.13100
C266        C  0.37032462  0.25180499  0.00621154    -0.14600
C267        C  0.11204377  0.24232906  0.46461664    -0.13100
C268        C  0.11929767  0.25364569  0.00358253    -0.14600
C269        C  0.99137842  0.23472483  0.34869218    -0.13100
C270        C  0.46596274  0.23874344  0.35759667    -0.14600
C271        C  0.01519752  0.24906361  0.11608145    -0.13100
C272        C  0.49031241  0.25317237  0.13267552    -0.14600
O273        O  0.47333149  0.18393087  0.98084101    -0.80700
O274        O  0.49289762  0.31511925  0.00781146    -0.65400
O275        O  0.00132154  0.23569184  0.97053217    -1.12000
C276        C  0.01338956  0.25302317  0.57278049     1.06200
O277        O  0.01334920  0.31323696  0.47692096    -0.78600
O278        O  0.05366549  0.27565810  0.50532293    -0.66200
Ni279      Ni  0.47126543  0.21102437  0.94500516     1.34900
C280        C  0.05485982  0.25078001  0.48804490     0.85000
O281        O  0.47636217  0.27844466  0.94097146    -0.79100
O282        O  0.46996167  0.23569177  0.90633002    -0.89400
C283        C  0.01717595  0.33175969  0.01795693     0.84500
O284        O  0.43275441  0.22560436  0.96182964    -0.67600
O285        O  0.02215322  0.27788881  0.56695493    -0.86900
C286        C  0.42966386  0.24686900  0.98641334     0.85400
C287        C  0.48352798  0.26149939  0.91428030     1.06900
H288        H  0.46158784  0.27248458  0.51321221     0.38700
O289        O  0.47880774  0.26933887  0.49875671    -1.09500
O290        O  0.03012931  0.23108614  0.48089835    -0.66200
Ni291      Ni  0.98526990  0.22784308  0.49231521     1.26300
O292        O  0.45383579  0.26651219  0.00256345    -0.66400
O293        O  0.00380578  0.23093297  0.54659760    -0.78700
C294        C  0.46506625  0.17000703  0.46889197     0.84700
O295        O  0.98790414  0.18775888  0.48608260    -0.65900
Ni296      Ni  0.01791848  0.29458348  0.52123194     1.27400
Ni297      Ni  0.49793762  0.27617169  0.99268307     1.26100
H298        H  0.01912867  0.23540330  0.95662673     0.39300
O299        O  0.49468693  0.18794925  0.77643942    -0.80700
O300        O  0.51419516  0.31108403  0.76438323    -0.65400
O301        O  0.02652893  0.23376141  0.75424927    -1.12000
C302        C  0.06706183  0.25812253  0.88184617     1.06200
O303        O  0.06668440  0.32875645  0.80471430    -0.78600
O304        O  0.10822600  0.28650601  0.81224837    -0.66200
Ni305      Ni  0.49175491  0.20454118  0.73086328     1.34900
C306        C  0.11225681  0.26113307  0.79867243     0.85000
O307        O  0.50367953  0.26769057  0.70513614    -0.79100
O308        O  0.48960143  0.22016210  0.68470400    -0.89400
C309        C  0.03991768  0.33263426  0.78064613     0.84500
O310        O  0.45335903  0.22209308  0.74177415    -0.67600
O311        O  0.08809983  0.27806196  0.87855377    -0.86900
C312        C  0.45060672  0.24651522  0.75919797     0.85400
C313        C  0.49670181  0.24540073  0.67909847     1.06900
H314        H  0.52071427  0.27646868  0.82696184     0.38700
O315        O  0.53876666  0.27348453  0.81379929    -1.09500
O316        O  0.09108106  0.23942355  0.79712294    -0.66200
Ni317      Ni  0.04589959  0.23357638  0.80712812     1.26300
O318        O  0.47485744  0.26662293  0.76873190    -0.66400
O319        O  0.06561974  0.23447064  0.86069344    -0.78700
C320        C  0.52144698  0.17701133  0.78889583     0.84700
O321        O  0.04807138  0.19330068  0.79822069    -0.65900
Ni322      Ni  0.07624468  0.30174990  0.84002522     1.27400
Ni323      Ni  0.52023497  0.27170455  0.75984055     1.26100
H324        H  0.04392635  0.23085525  0.73999888     0.39300
O325        O  0.21689546  0.18280573  0.97104795    -0.80700
O326        O  0.24351012  0.31429771  0.00319272    -0.65400
O327        O  0.25252720  0.23615133  0.97132510    -1.12000
C328        C  0.25733891  0.25330360  0.57159159     1.06200
O329        O  0.25967064  0.31532207  0.47845728    -0.78600
O330        O  0.30129563  0.27924430  0.50870872    -0.66200
Ni331      Ni  0.21567232  0.21102872  0.93686008     1.34900
C332        C  0.30432382  0.25485793  0.49122328     0.85000
O333        O  0.22444925  0.27898057  0.93536348    -0.79100
O334        O  0.21429912  0.23668491  0.89943428    -0.89400
C335        C  0.26963007  0.33231418  0.01745295     0.84500
O336        O  0.17891652  0.22657892  0.95621859    -0.67600
O337        O  0.26565744  0.27863593  0.56707362    -0.86900
C338        C  0.17734904  0.24791995  0.98147357     0.85400
C339        C  0.23013130  0.26170813  0.90803360     1.06900
H340        H  0.20893179  0.27008213  0.50880710     0.38700
O341        O  0.22678602  0.26787174  0.49508126    -1.09500
O342        O  0.28031959  0.23449343  0.48223718    -0.66200
Ni343      Ni  0.23438679  0.22915964  0.49000509     1.26300
O344        O  0.20231707  0.26692958  0.99710799    -0.66400
O345        O  0.24977302  0.23161024  0.54465141    -0.78700
C346        C  0.21750762  0.16918612  0.46714682     0.84700
O347        O  0.23991904  0.18985757  0.48390069    -0.65900
Ni348      Ni  0.26308721  0.29612861  0.52207208     1.27400
Ni349      Ni  0.24631254  0.27518222  0.98638220     1.26100
H350        H  0.27086868  0.23586914  0.95819385     0.39300
O351        O  0.24263416  0.18707517  0.77500114    -0.80700
O352        O  0.26492613  0.31116720  0.76195983    -0.65400
O353        O  0.27538688  0.23229425  0.75314227    -1.12000
C354        C  0.32025310  0.25913542  0.87983537     1.06200
O355        O  0.31671562  0.32729089  0.79848267    -0.78600
O356        O  0.35811459  0.28507770  0.80616354    -0.66200
Ni357      Ni  0.23799730  0.20428845  0.72949771     1.34900
C358        C  0.36183478  0.25943638  0.79362284     0.85000
O359        O  0.25017915  0.26730657  0.70247882    -0.79100
O360        O  0.23400769  0.21997371  0.68289310    -0.89400
C361        C  0.28898611  0.33117183  0.77607550     0.84500
O362        O  0.20139500  0.22292768  0.74386880    -0.67600
O363        O  0.34087627  0.27860973  0.87453952    -0.86900
C364        C  0.19987671  0.24771671  0.76122620     0.85400
C365        C  0.24166863  0.24495185  0.67660008     1.06900
H366        H  0.27206879  0.27659772  0.82405515     0.38700
O367        O  0.28959270  0.27313540  0.81023820    -1.09500
O368        O  0.34086510  0.23799029  0.79375309    -0.66200
Ni369      Ni  0.29638652  0.23301024  0.80585527     1.26300
O370        O  0.22439672  0.26753849  0.76857961    -0.66400
O371        O  0.31773372  0.23502847  0.85929462    -0.78700
C372        C  0.26974330  0.17643873  0.78727929     0.84700
O373        O  0.29788070  0.19253008  0.79824838    -0.65900
Ni374      Ni  0.32760099  0.30134698  0.83510714     1.27400
Ni375      Ni  0.26895799  0.27131488  0.75687590     1.26100
H376        H  0.29216192  0.22909077  0.73809042     0.39300
O377        O  0.02422802  0.04311022  0.00892526    -0.74200
O378        O  0.02637785  0.46695051  0.00302180    -0.74200
O379        O  0.01825283  0.50228012  0.94825466    -0.74300
O380        O  0.01681966  0.50079657  0.55723609    -0.74300
O381        O  0.47759489  0.00440987  0.55494320    -0.74300
O382        O  0.46604770  0.99973959  0.94128256    -0.74300
O383        O  0.46755433  0.46025439  0.48436368    -0.74200
O384        O  0.46362059  0.03832685  0.49860746    -0.74300
Ni385      Ni  0.02133915  0.50660080  0.00393895     1.25400
Ni386      Ni  0.46843923  0.99890472  0.49849331     1.25400
C387        C  0.97908737  0.05259815  0.49842876     0.88000
C388        C  0.00062930  0.44819649  0.99719915     0.87900
C389        C  0.98975138  0.49519667  0.92308037     0.87900
C390        C  0.98781481  0.00385826  0.57098852     0.88100
O391        O  0.04689820  0.46654781  0.75869785    -0.74200
O392        O  0.04187912  0.04311036  0.76831055    -0.74200
O393        O  0.03856814  0.50910729  0.81295058    -0.74300
O394        O  0.03963934  0.50214176  0.70477839    -0.74300
O395        O  0.47310147  0.99759619  0.69499755    -0.74300
O396        O  0.48354173  0.99926792  0.80434209    -0.74300
O397        O  0.48150289  0.03925674  0.75793067    -0.74200
O398        O  0.47768356  0.45144948  0.74181356    -0.74300
Ni399      Ni  0.04083669  0.50606953  0.75943666     1.25400
Ni400      Ni  0.47684502  0.99821863  0.74947704     1.25400
C401        C  0.02156837  0.44711727  0.75094227     0.88000
C402        C  0.01419896  0.05449300  0.76321415     0.87900
C403        C  0.01117378  0.00171801  0.82533923     0.87900
C404        C  0.01195503  0.49577654  0.67842718     0.88100
O405        O  0.22765988  0.00269435  0.55409447    -0.74200
O406        O  0.21087175  0.99665742  0.93546585    -0.74200
O407        O  0.20623585  0.45866762  0.48174536    -0.74300
O408        O  0.21368716  0.03848805  0.50013745    -0.74300
O409        O  0.26654203  0.04267884  0.01245844    -0.74300
O410        O  0.28303433  0.46834304  0.00141827    -0.74300
O411        O  0.27180370  0.50424790  0.94762519    -0.74200
O412        O  0.26472843  0.50477993  0.55672864    -0.74300
Ni413      Ni  0.21800887  0.99880436  0.49756383     1.25400
Ni414      Ni  0.27810996  0.50836996  0.00335659     1.25400
C415        C  0.25813891  0.00859436  0.57539523     0.88000
C416        C  0.24237038  0.49796802  0.92432592     0.87900
C417        C  0.25726856  0.44961066  0.99634306     0.87900
C418        C  0.23901981  0.05677508  0.50208397     0.88100
O419        O  0.23448341  0.99824418  0.80434076    -0.74200
O420        O  0.22394465  0.99670254  0.69506199    -0.74200
O421        O  0.24118020  0.45346120  0.73990372    -0.74300
O422        O  0.23166811  0.03837472  0.75816268    -0.74300
O423        O  0.28785459  0.04194132  0.76651728    -0.74300
O424        O  0.29714801  0.46545329  0.75685892    -0.74300
O425        O  0.29078491  0.50215446  0.70418973    -0.74200
O426        O  0.29024041  0.50800589  0.81253191    -0.74300
Ni427      Ni  0.22774125  0.99732800  0.74957442     1.25400
Ni428      Ni  0.29234575  0.50535004  0.75890817     1.25400
C429        C  0.26401901  0.00015888  0.82685971     0.88000
C430        C  0.26276736  0.49698411  0.67823921     0.87900
C431        C  0.27133534  0.44644180  0.74887423     0.87900
C432        C  0.26059328  0.05363351  0.76578930     0.88100
C433        C  0.23842304  0.49654805  0.88136389    -0.16200
C434        C  0.26705243  0.00044300  0.86932112    -0.31400
H435        H  0.21430730  0.99602455  0.86463917     0.12800
H436        H  0.28953655  0.51031346  0.88477642     0.13400
C437        C  0.26593494  0.00873574  0.61845401    -0.16200
C438        C  0.26372838  0.49845926  0.63692696    -0.31400
H439        H  0.21149771  0.50000632  0.61623598     0.12800
H440        H  0.21680935  0.99362310  0.62100761     0.13400
C441        C  0.98730492  0.49374049  0.88040575    -0.16200
C442        C  0.01217381  0.00212034  0.86736289    -0.31400
H443        H  0.45938265  0.48879980  0.86269217     0.12800
H444        H  0.03727863  0.00481526  0.88666802     0.13400
C445        C  0.98662875  0.00332171  0.61233948    -0.16200
C446        C  0.01364542  0.49603293  0.63705426    -0.31400
H447        H  0.96113142  0.49284982  0.61331595     0.12800
H448        H  0.46640864  0.99465616  0.62093343     0.13400
C449        C  0.29489280  0.10175173  0.78412763    -0.13100
C450        C  0.26299240  0.08514543  0.77402188     0.09000
C451        C  0.23366788  0.09899003  0.77165363    -0.13100
C452        C  0.23609862  0.12869910  0.77767456    -0.13100
C453        C  0.26791435  0.14528495  0.78634524     0.09000
C454        C  0.29732853  0.13149890  0.79030925    -0.13100
H455        H  0.31806040  0.09176674  0.78660427     0.13000
H456        H  0.20877235  0.08688552  0.76434551     0.13800
H457        H  0.21289963  0.13867632  0.77457417     0.13000
H458        H  0.32215369  0.14364846  0.79684812     0.13000
C459        C  0.31289877  0.38099186  0.77380415    -0.13100
C460        C  0.28479347  0.36005452  0.76612350     0.09000
C461        C  0.25249041  0.36734810  0.75008976    -0.13100
C462        C  0.24826640  0.39509268  0.74328318    -0.13100
C463        C  0.27626721  0.41624419  0.75197175     0.09000
C464        C  0.30871681  0.40865887  0.76666282    -0.13100
H465        H  0.33817815  0.37610664  0.78585973     0.13000
H466        H  0.23026135  0.35181446  0.74382389     0.13000
H467        H  0.22288848  0.40012498  0.73202935     0.13000
H468        H  0.33086589  0.42433832  0.77374961     0.13000
C469        C  0.20116232  0.09122619  0.47515577    -0.13100
C470        C  0.23279839  0.08618311  0.49673705     0.09000
C471        C  0.25887350  0.10888249  0.50978463    -0.13100
C472        C  0.25362264  0.13592051  0.50085301    -0.13100
C473        C  0.22238104  0.14074014  0.47798296     0.09000
C474        C  0.19609343  0.11810826  0.46560947    -0.13100
H475        H  0.18510805  0.08368798  0.98172820     0.13000
H476        H  0.28346627  0.10563595  0.52646413     0.13000
H477        H  0.27438044  0.15290923  0.51113217     0.13000
H478        H  0.18701221  0.13368443  0.97428004     0.13000
C479        C  0.26389627  0.40388617  0.48749523    -0.13100
C480        C  0.26183360  0.41930505  0.99879233     0.09000
C481        C  0.23381040  0.39823363  0.98554439    -0.13100
C482        C  0.23665692  0.37018636  0.99128479    -0.13100
C483        C  0.26757571  0.36227794  0.01076072     0.09000
C484        C  0.26340065  0.37435834  0.48184235    -0.13100
H485        H  0.28809769  0.41699651  0.49835275     0.13000
H486        H  0.20936063  0.40350711  0.97115785     0.13000
H487        H  0.21429332  0.35474388  0.98087942     0.13000
H488        H  0.28726802  0.36554589  0.48872768     0.13000
C489        C  0.29054602  0.26589299  0.89294002    -0.13100
C490        C  0.26248027  0.26604735  0.89874299    -0.14600
C491        C  0.24495705  0.24753501  0.63865435    -0.13100
C492        C  0.25251503  0.24955008  0.60862088    -0.14600
C493        C  0.04806870  0.13273126  0.79343727    -0.13100
C494        C  0.51913258  0.14574425  0.78625409     0.09000
C495        C  0.48710944  0.12936730  0.77368823    -0.13100
C496        C  0.48430674  0.09970492  0.76733064    -0.13100
C497        C  0.51345644  0.08566425  0.77325826     0.09000
C498        C  0.04656469  0.10304800  0.78751419    -0.13100
H499        H  0.07212303  0.14543432  0.80722908     0.13000
H500        H  0.46405648  0.13947212  0.76805711     0.13000
H501        H  0.45931192  0.08778812  0.75717601     0.13000
H502        H  0.06952029  0.09355760  0.79723729     0.13000
C503        C  0.49638432  0.36543141  0.75113989    -0.13100
C504        C  0.03605532  0.36161530  0.77100481     0.09000
C505        C  0.06272774  0.38392346  0.78491093    -0.13100
C506        C  0.05846372  0.41141170  0.77707822    -0.13100
C507        C  0.02731969  0.41737317  0.75547242     0.09000
C508        C  0.48969074  0.39243732  0.74271125    -0.13100
H509        H  0.47606333  0.34803511  0.74168392     0.13000
H510        H  0.08683030  0.38024667  0.80227692     0.13000
H511        H  0.07926892  0.42820016  0.78898411     0.13000
H512        H  0.46447920  0.39515959  0.72712285     0.13000
C513        C  0.39212294  0.25459206  0.77934567    -0.13100
C514        C  0.41852450  0.25129864  0.76937123    -0.14600
C515        C  0.16882334  0.25328262  0.77366103    -0.13100
C516        C  0.14285220  0.25680409  0.78462385    -0.14600
C517        C  0.99829198  0.13180091  0.49897287    -0.13100
C518        C  0.47052462  0.14103270  0.47763633     0.09000
C519        C  0.44362461  0.11896560  0.46894714    -0.13100
C520        C  0.44943966  0.09181788  0.47733058    -0.13100
C521        C  0.48237718  0.08596058  0.49401091     0.09000
C522        C  0.00204576  0.10400357  0.50562356    -0.13100
H523        H  0.02051188  0.14745611  0.50723584     0.13000
H524        H  0.41809396  0.12269118  0.45577325     0.13000
H525        H  0.44552296  0.08474519  0.99209145     0.13000
H526        H  0.02704699  0.09910416  0.51877019     0.13000
C527        C  0.48425623  0.37083991  0.99451200    -0.13100
C528        C  0.01375863  0.36168312  0.01263554     0.09000
C529        C  0.04196542  0.38264553  0.02238790    -0.13100
C530        C  0.01895025  0.40181834  0.48190729    -0.13100
C531        C  0.00565826  0.41827399  0.00107397     0.09000
C532        C  0.48106422  0.39865487  0.98777114    -0.13100
H533        H  0.46229395  0.35500205  0.98384877     0.13000
H534        H  0.04194496  0.36323832  0.48353844     0.13000
H535        H  0.04326491  0.41484297  0.49190791     0.13000
H536        H  0.45672647  0.40347214  0.97237532     0.13000
C537        C  0.39700734  0.24902284  0.99656215    -0.13100
C538        C  0.33643530  0.25038243  0.48035554    -0.14600
C539        C  0.14551589  0.25081685  0.99305765    -0.13100
C540        C  0.08586828  0.24515360  0.47545839    -0.14600
C541        C  0.03633439  0.26413084  0.89304120    -0.13100
C542        C  0.51528457  0.26790906  0.90440045    -0.14600
C543        C  0.00971165  0.25065547  0.61058160    -0.13100
C544        C  0.50076946  0.24845542  0.64181928    -0.14600
O545        O  0.46416587  0.68432612  0.47476969    -0.80700
O546        O  0.48873509  0.81678402  0.50514759    -0.65400
O547        O  0.99944885  0.73601521  0.48091131    -1.12000
C548        C  0.01018890  0.75131563  0.07333421     1.06200
O549        O  0.01019871  0.81335618  0.97990503    -0.78600
O550        O  0.05129387  0.77604637  0.00746786    -0.66200
Ni551      Ni  0.45862149  0.71269441  0.44048165     1.34900
C552        C  0.05275300  0.75153772  0.98920062     0.85000
O553        O  0.46750251  0.78154646  0.43688690    -0.79100
O554        O  0.45299120  0.73865628  0.40317197    -0.89400
C555        C  0.01524408  0.83238625  0.52434450     0.84500
O556        O  0.42352637  0.72746292  0.46387881    -0.67600
O557        O  0.01894891  0.77648346  0.06854215    -0.86900
C558        C  0.42215507  0.74994054  0.48736457     0.85400
C559        C  0.47061826  0.76289742  0.40947507     1.06900
H560        H  0.45836948  0.76986071  0.00955863     0.38700
O561        O  0.47580012  0.76752448  0.99522912    -1.09500
O562        O  0.02811756  0.73175317  0.98114859    -0.66200
Ni563      Ni  0.98325796  0.72749096  0.99217855     1.26300
O564        O  0.44670791  0.76985707  0.49985506    -0.66400
O565        O  0.00140110  0.72958442  0.04643506    -0.78700
C566        C  0.46550178  0.66884184  0.96833930     0.84700
O567        O  0.98715324  0.68767458  0.98444039    -0.65900
Ni568      Ni  0.01488883  0.79404850  0.02353231     1.27400
Ni569      Ni  0.49040767  0.77757556  0.48763981     1.26100
H570        H  0.01737643  0.73569707  0.46714206     0.39300
O571        O  0.48292705  0.68350163  0.26816815    -0.80700
O572        O  0.50504337  0.80721762  0.25918128    -0.65400
O573        O  0.02257615  0.73339315  0.25511557    -1.12000
C574        C  0.06418138  0.76013347  0.38225232     1.06200
O575        O  0.06023479  0.82957316  0.30309982    -0.78600
O576        O  0.10245392  0.78754536  0.30879939    -0.66200
Ni577      Ni  0.48148317  0.70068563  0.22314988     1.34900
C578        C  0.10710748  0.76201034  0.29680485     0.85000
O579        O  0.49329919  0.76421713  0.19914002    -0.79100
O580        O  0.48076628  0.71675143  0.17749362    -0.89400
C581        C  0.03308825  0.83256555  0.27895092     0.84500
O582        O  0.44303915  0.71853213  0.23364820    -0.67600
O583        O  0.08496921  0.77939306  0.37677530    -0.86900
C584        C  0.44077496  0.74244269  0.25295955     0.85400
C585        C  0.48771459  0.74223584  0.17271660     1.06900
H586        H  0.51115227  0.77217066  0.32046410     0.38700
O587        O  0.52914155  0.76895229  0.30728351    -1.09500
O588        O  0.08706530  0.74026037  0.29789910    -0.66200
Ni589      Ni  0.04204842  0.73425800  0.30817693     1.26300
O590        O  0.46527757  0.76235164  0.26334339    -0.66400
O591        O  0.06157831  0.73598516  0.36195491    -0.78700
C592        C  0.50936816  0.67264283  0.28208786     0.84700
O593        O  0.04529659  0.69422437  0.30052656    -0.65900
Ni594      Ni  0.07155440  0.80274809  0.33832807     1.27400
Ni595      Ni  0.51040476  0.76762464  0.25367074     1.26100
H596        H  0.03997445  0.73041556  0.24088882     0.39300
O597        O  0.21214064  0.68404729  0.47064764    -0.80700
O598        O  0.23754393  0.81687318  0.50397881    -0.65400
O599        O  0.24555430  0.73850010  0.47168847    -1.12000
C600        C  0.25669168  0.75192572  0.07044179     1.06200
O601        O  0.25846433  0.81279857  0.97656718    -0.78600
O602        O  0.29981949  0.77725532  0.00863598    -0.66200
Ni603      Ni  0.20812114  0.71332168  0.43819198     1.34900
C604        C  0.30248256  0.75319261  0.99000614     0.85000
O605        O  0.21968150  0.78267474  0.43555104    -0.79100
O606        O  0.20285314  0.74008324  0.40225170    -0.89400
C607        C  0.26404241  0.83439098  0.51821500     0.84500
O608        O  0.17310602  0.72728510  0.46212981    -0.67600
O609        O  0.26371601  0.77748224  0.06600273    -0.86900
C610        C  0.17151013  0.74984234  0.48523318     0.85400
C611        C  0.22203260  0.76346228  0.40849597     1.06900
H612        H  0.20763966  0.76831727  0.00840306     0.38700
O613        O  0.22528619  0.76615753  0.99436318    -1.09500
O614        O  0.27819915  0.73309102  0.97971049    -0.66200
Ni615      Ni  0.23309120  0.72746487  0.98929741     1.26300
O616        O  0.19539479  0.77028303  0.49661040    -0.66400
O617        O  0.25043875  0.73017218  0.04364317    -0.78700
C618        C  0.21542792  0.66773492  0.96808254     0.84700
O619        O  0.23877552  0.68813361  0.98272886    -0.65900
Ni620      Ni  0.26154427  0.79448712  0.02084254     1.27400
Ni621      Ni  0.23989494  0.77784010  0.48680064     1.26100
H622        H  0.26368305  0.73781174  0.45826668     0.39300
O623        O  0.23288204  0.68404224  0.26870729    -0.80700
O624        O  0.26044739  0.80871109  0.25923545    -0.65400
O625        O  0.26786068  0.72935990  0.24925920    -1.12000
C626        C  0.31031042  0.75341934  0.37648393     1.06200
O627        O  0.31025228  0.82466396  0.30054838    -0.78600
O628        O  0.34979947  0.78071951  0.30372155    -0.66200
Ni629      Ni  0.22957878  0.70237337  0.22433843     1.34900
C630        C  0.35338483  0.75503015  0.29112573     0.85000
O631        O  0.24649221  0.76559981  0.19937768    -0.79100
O632        O  0.22683050  0.71890924  0.17861350    -0.89400
C633        C  0.28380580  0.82873229  0.27611461     0.84500
O634        O  0.19373521  0.72173642  0.23943592    -0.67600
O635        O  0.33223067  0.77180816  0.37114752    -0.86900
C636        C  0.19287773  0.74677523  0.25642955     0.85400
C637        C  0.23694367  0.74357237  0.17316515     1.06900
H638        H  0.26358607  0.77300514  0.32065293     0.38700
O639        O  0.28152692  0.76947239  0.30750927    -1.09500
O640        O  0.33246709  0.73365850  0.29174792    -0.66200
Ni641      Ni  0.28713922  0.72899764  0.30198084     1.26300
O642        O  0.21781004  0.76613794  0.26338375    -0.66400
O643        O  0.30614805  0.72934775  0.35561032    -0.78700
C644        C  0.25963729  0.67293839  0.28083565     0.84700
O645        O  0.28791830  0.68864578  0.29294793    -0.65900
Ni646      Ni  0.32012265  0.79659339  0.33427530     1.27400
Ni647      Ni  0.26311849  0.76870653  0.25380705     1.26100
H648        H  0.28494624  0.72575428  0.23474779     0.39300
O649        O  0.01771189  0.54283287  0.51273489    -0.74200
O650        O  0.02385493  0.96721422  0.50585251    -0.74200
O651        O  0.01676591  0.00349371  0.45207244    -0.74300
O652        O  0.02812403  0.00369165  0.05752214    -0.74300
O653        O  0.47258103  0.50041017  0.04831619    -0.74300
O654        O  0.46345558  0.50038845  0.43848008    -0.74300
O655        O  0.46687083  0.95900764  0.98625265    -0.74200
O656        O  0.46153345  0.53631588  0.99438582    -0.74300
Ni657      Ni  0.01847862  0.00691753  0.50739388     1.25400
Ni658      Ni  0.46596909  0.49647273  0.99238013     1.25400
C659        C  0.98234408  0.55243244  0.99483868     0.88000
C660        C  0.99821556  0.94827352  0.49962921     0.87900
C661        C  0.98862997  0.99626674  0.42637264     0.87900
C662        C  0.99229613  0.50472720  0.06911957     0.88100
O663        O  0.03456378  0.96540816  0.25385899    -0.74200
O664        O  0.04573336  0.54434933  0.26923608    -0.74200
O665        O  0.03286200  0.00869029  0.31099966    -0.74300
O666        O  0.02123742  0.00053797  0.19902498    -0.74300
O667        O  0.46348235  0.49276937  0.18824735    -0.74300
O668        O  0.47552376  0.49565811  0.29858054    -0.74300
O669        O  0.47062377  0.53478375  0.25099750    -0.74200
O670        O  0.47591008  0.95004713  0.24339491    -0.74300
Ni671      Ni  0.02922363  0.00496494  0.25540960     1.25400
Ni672      Ni  0.46771445  0.49386892  0.24323098     1.25400
C673        C  0.00939084  0.94662895  0.25077237     0.88000
C674        C  0.01760474  0.55516313  0.26477987     0.87900
C675        C  0.01656208  0.50121832  0.32482580     0.87900
C676        C  0.99120300  0.99413312  0.17681121     0.88100
O677        O  0.22537888  0.49924063  0.04906688    -0.74200
O678        O  0.20608025  0.49760003  0.43408701    -0.74200
O679        O  0.20774227  0.95692884  0.98131113    -0.74300
O680        O  0.21332594  0.53553528  0.99571847    -0.74300
O681        O  0.26440278  0.54460389  0.50824103    -0.74300
O682        O  0.28121554  0.96993425  0.50217211    -0.74300
O683        O  0.26860570  0.00560763  0.44856794    -0.74200
O684        O  0.26389357  0.00206834  0.05950982    -0.74300
Ni685      Ni  0.21851888  0.49580822  0.99296560     1.25400
Ni686      Ni  0.27741795  0.01012499  0.50442779     1.25400
C687        C  0.25507035  0.50572257  0.07199444     0.88000
C688        C  0.23856862  0.99960744  0.42664459     0.87900
C689        C  0.25512831  0.95183204  0.49856279     0.87900
C690        C  0.23859228  0.55439522  0.99948124     0.88100
O691        O  0.22552915  0.49555542  0.29869473    -0.74200
O692        O  0.21599408  0.49289444  0.18891645    -0.74200
O693        O  0.23590452  0.95176869  0.24200435    -0.74300
O694        O  0.22201044  0.53492554  0.25113561    -0.74300
O695        O  0.27831126  0.53926184  0.26040238    -0.74300
O696        O  0.29192172  0.96350840  0.25910861    -0.74300
O697        O  0.28630579  0.99933860  0.20551715    -0.74200
O698        O  0.28507239  0.00673471  0.31368954    -0.74300
Ni699      Ni  0.21910878  0.49397524  0.24356469     1.25400
Ni700      Ni  0.28760649  0.00328058  0.26020256     1.25400
C701        C  0.25512479  0.49818190  0.32142220     0.88000
C702        C  0.25842268  0.99411607  0.17934988     0.87900
C703        C  0.26603893  0.94463848  0.25125007     0.87900
C704        C  0.25070425  0.55049563  0.25870684     0.88100
C705        C  0.23335944  0.99758851  0.38340285    -0.16200
C706        C  0.25873247  0.49930172  0.36409793    -0.31400
H707        H  0.20635229  0.49623291  0.36167272     0.12800
H708        H  0.28440642  0.01047358  0.38552829     0.13400
C709        C  0.26074999  0.50576044  0.11482170    -0.16200
C710        C  0.25995173  0.99519609  0.13812478    -0.31400
H711        H  0.20787708  0.99668432  0.11568253     0.12800
H712        H  0.21090063  0.49015389  0.11457179     0.13400
C713        C  0.98646266  0.99511405  0.38389571    -0.16200
C714        C  0.01746524  0.50158558  0.36702083    -0.31400
H715        H  0.45838236  0.98822038  0.36699459     0.12800
H716        H  0.04225484  0.50327191  0.38673711     0.13400
C717        C  0.99153750  0.50473547  0.11093939    -0.16200
C718        C  0.98459555  0.99351908  0.13371532    -0.31400
H719        H  0.03452029  0.00710364  0.13195404     0.12800
H720        H  0.45783164  0.49024035  0.11330094     0.13400
C721        C  0.28450132  0.59844161  0.27468070    -0.13100
C722        C  0.25268640  0.58186440  0.26591039     0.09000
C723        C  0.22333141  0.59558821  0.26426737    -0.13100
C724        C  0.22572739  0.62528469  0.27040360    -0.13100
C725        C  0.25752696  0.64179102  0.27852271     0.09000
C726        C  0.28689635  0.62807669  0.28103088    -0.13100
H727        H  0.30767478  0.58853513  0.27626404     0.13000
H728        H  0.19852392  0.58341873  0.25779303     0.13800
H729        H  0.20260644  0.63532569  0.26822644     0.13000
H730        H  0.31166645  0.64021776  0.28681198     0.13000
C731        C  0.30684669  0.88009745  0.28127981    -0.13100
C732        C  0.27998020  0.85798985  0.26722688     0.09000
C733        C  0.24896031  0.86440704  0.24572672    -0.13100
C734        C  0.24455799  0.89232830  0.23974360    -0.13100
C735        C  0.27120881  0.91451495  0.25458421     0.09000
C736        C  0.30257520  0.90790869  0.27486152    -0.13100
H737        H  0.33113269  0.87601471  0.29775531     0.13000
H738        H  0.22770541  0.84796319  0.23431634     0.13000
H739        H  0.22011657  0.89660727  0.22390886     0.13000
H740        H  0.32364930  0.92444576  0.28684985     0.13000
C741        C  0.19919243  0.59080496  0.98166375    -0.13100
C742        C  0.23235385  0.58418429  0.99543482     0.09000
C743        C  0.25957314  0.60573677  0.00185463    -0.13100
C744        C  0.25389935  0.63291697  0.99372963    -0.13100
C745        C  0.22089415  0.63919763  0.97846561     0.09000
C746        C  0.19355664  0.61790418  0.97301762    -0.13100
H747        H  0.18269738  0.58444588  0.47657545     0.13000
H748        H  0.28540484  0.60144160  0.01238957     0.13000
H749        H  0.27556468  0.64882785  0.99841369     0.13000
H750        H  0.18379886  0.63457186  0.47054631     0.13000
C751        C  0.26423900  0.90149596  0.98947568    -0.13100
C752        C  0.25872109  0.92142051  0.50034288     0.09000
C753        C  0.22975908  0.90123965  0.48879316    -0.13100
C754        C  0.23179005  0.87312129  0.49426007    -0.13100
C755        C  0.26282340  0.86432036  0.51169864     0.09000
C756        C  0.26321140  0.87192950  0.98316674    -0.13100
H757        H  0.28834354  0.91429092  0.00270341     0.13000
H758        H  0.20523433  0.90728478  0.47605676     0.13000
H759        H  0.20875048  0.85836567  0.48535607     0.13000
H760        H  0.28660155  0.86278428  0.99197414     0.13000
C761        C  0.28128918  0.76167333  0.39016192    -0.13100
C762        C  0.25382392  0.76380409  0.39719741    -0.14600
C763        C  0.24210964  0.74593933  0.13601761    -0.13100
C764        C  0.25117059  0.74791596  0.10690911    -0.14600
C765        C  0.04864921  0.63411799  0.29291619    -0.13100
C766        C  0.50675390  0.64157378  0.28100404     0.09000
C767        C  0.47471823  0.62516391  0.26915477    -0.13100
C768        C  0.47207808  0.59547390  0.26251504    -0.13100
C769        C  0.50143299  0.58164109  0.26743619     0.09000
C770        C  0.04855972  0.60453775  0.28642943    -0.13100
H771        H  0.07271454  0.64750689  0.30286882     0.13000
H772        H  0.45163697  0.63526155  0.26387477     0.13000
H773        H  0.44715406  0.58341200  0.25256173     0.13000
H774        H  0.07258217  0.59583977  0.29198722     0.13000
C775        C  0.49079915  0.86264395  0.24591884    -0.13100
C776        C  0.02753533  0.86136355  0.26946147     0.09000
C777        C  0.05426950  0.88368811  0.27970839    -0.13100
C778        C  0.04855141  0.91104904  0.27230580    -0.13100
C779        C  0.01584795  0.91693359  0.25498588     0.09000
C780        C  0.48543957  0.89030808  0.23931564    -0.13100
H781        H  0.46966593  0.84595932  0.23612189     0.13000
H782        H  0.07961224  0.88008654  0.29376863     0.13000
H783        H  0.06962466  0.92782096  0.28123179     0.13000
H784        H  0.46040541  0.89420758  0.22467399     0.13000
C785        C  0.38323865  0.75005209  0.27586098    -0.13100
C786        C  0.40909104  0.74682844  0.26453173    -0.14600
C787        C  0.16228692  0.75319721  0.26935583    -0.13100
C788        C  0.13699175  0.75741630  0.28142915    -0.14600
C789        C  0.00082541  0.63057650  0.98844451    -0.13100
C790        C  0.47090393  0.64011805  0.97795958     0.09000
C791        C  0.44330386  0.61905378  0.97240313    -0.13100
C792        C  0.44851124  0.59177432  0.98043499    -0.13100
C793        C  0.48150025  0.58471780  0.99373856     0.09000
C794        C  0.00539145  0.60287222  0.99503381    -0.13100
H795        H  0.02302800  0.64570343  0.99191992     0.13000
H796        H  0.41761958  0.62361615  0.96164590     0.13000
H797        H  0.44157563  0.58621388  0.49701633     0.13000
H798        H  0.03100961  0.59743161  0.00331586     0.13000
C799        C  0.48218337  0.87450517  0.50462332    -0.13100
C800        C  0.01187614  0.86212995  0.51771068     0.09000
C801        C  0.04023111  0.88265680  0.52422524    -0.13100
C802        C  0.01802751  0.90140940  0.98232962    -0.13100
C803        C  0.00341038  0.91836699  0.50401528     0.09000
C804        C  0.47995975  0.90280773  0.50042336    -0.13100
H805        H  0.45888712  0.86046009  0.50013525     0.13000
H806        H  0.03906734  0.86188516  0.97830829     0.13000
H807        H  0.04270970  0.91358468  0.98754894     0.13000
H808        H  0.45495809  0.90962478  0.49286310     0.13000
C809        C  0.39086245  0.75312994  0.50032288    -0.13100
C810        C  0.33456527  0.74875496  0.97954622    -0.14600
C811        C  0.14101710  0.75240251  0.49968475    -0.13100
C812        C  0.08386472  0.74623915  0.97655962    -0.14600
C813        C  0.03461583  0.76684766  0.39580252    -0.13100
C814        C  0.50235919  0.76480799  0.39803102    -0.14600
C815        C  0.00554850  0.74816040  0.11062883    -0.13100
C816        C  0.49360826  0.74609584  0.13638347    -0.14600
O817        O  0.43779959  0.67213542  0.94532721    -0.80700
O818        O  0.45484528  0.80851539  0.95142924    -0.65400
O819        O  0.96296488  0.72750503  0.93917205    -1.12000
C820        C  0.04005340  0.74724457  0.60919598     1.06200
O821        O  0.04333901  0.82570025  0.54307418    -0.78600
O822        O  0.08381127  0.78224069  0.54740429    -0.66200
Ni823      Ni  0.42463051  0.70015227  0.91238876     1.34900
C824        C  0.08606574  0.75810579  0.52808873     0.85000
O825        O  0.43674996  0.76725920  0.88868312    -0.79100
O826        O  0.40930932  0.72526613  0.87714670    -0.89400
C827        C  0.98296085  0.82405974  0.96840080     0.84500
O828        O  0.39684970  0.71523780  0.94578968    -0.67600
O829        O  0.06038424  0.76939749  0.61102911    -0.86900
C830        C  0.39146763  0.74090148  0.95554384     0.85400
C831        C  0.43032247  0.74276391  0.86858490     1.06900
H832        H  0.49561378  0.77232808  0.55254823     0.38700
O833        O  0.51248531  0.77155943  0.53734769    -1.09500
O834        O  0.06352967  0.73667527  0.52159459    -0.66200
Ni835      Ni  0.01873756  0.73028520  0.53155551     1.26300
O836        O  0.41089119  0.76250633  0.95245698    -0.66400
O837        O  0.03879943  0.72613341  0.58316699    -0.78700
C838        C  0.49203571  0.67583809  0.49113783     0.84700
O839        O  0.01903769  0.69053193  0.51554503    -0.65900
Ni840      Ni  0.05137969  0.79620340  0.57549956     1.27400
Ni841      Ni  0.45626088  0.76802176  0.94242046     1.26100
H842        H  0.98049035  0.72441067  0.92525512     0.39300
O843        O  0.45132450  0.67277078  0.69980826    -0.80700
O844        O  0.47685625  0.80893603  0.73725741    -0.65400
O845        O  0.98438929  0.73181580  0.71592131    -1.12000
C846        C  0.02158169  0.73897711  0.84403053     1.06200
O847        O  0.03405327  0.81841910  0.78205659    -0.78600
O848        O  0.07252689  0.77452826  0.79577844    -0.66200
Ni849      Ni  0.44311431  0.70492103  0.67251656     1.34900
C850        C  0.07414013  0.75300171  0.77081023     0.85000
O851        O  0.46100869  0.77602394  0.66775489    -0.79100
O852        O  0.43296632  0.73456556  0.64239868    -0.89400
C853        C  0.00766345  0.82762024  0.76335359     0.84500
O854        O  0.41280128  0.71720282  0.70446482    -0.67600
O855        O  0.03806814  0.76373887  0.85281291    -0.86900
C856        C  0.40979222  0.74188499  0.72157873     0.85400
C857        C  0.45545714  0.75437401  0.64164671     1.06900
H858        H  0.47607466  0.76226420  0.78242480     0.38700
O859        O  0.49469694  0.76211876  0.76970248    -1.09500
O860        O  0.04910306  0.73403870  0.75521303    -0.66200
Ni861      Ni  0.00509970  0.72570350  0.76594175     1.26300
O862        O  0.43165479  0.76351376  0.72596455    -0.66400
O863        O  0.02717261  0.72162672  0.81676742    -0.78700
C864        C  0.47807055  0.66577926  0.72089112     0.84700
O865        O  0.00816574  0.68678333  0.74871342    -0.65900
Ni866      Ni  0.03588453  0.78979963  0.81580205     1.27400
Ni867      Ni  0.47768480  0.76959177  0.71931366     1.26100
H868        H  0.00133268  0.73035572  0.70083645     0.39300
O869        O  0.18765666  0.67111307  0.94519769    -0.80700
O870        O  0.20369564  0.80669749  0.95027117    -0.65400
O871        O  0.21381718  0.72650155  0.93597229    -1.12000
C872        C  0.28310396  0.74731680  0.60111986     1.06200
O873        O  0.29140739  0.82650972  0.53677437    -0.78600
O874        O  0.33113552  0.78289827  0.54457069    -0.66200
Ni875      Ni  0.17642342  0.69808175  0.90982172     1.34900
C876        C  0.33333180  0.75935895  0.52381002     0.85000
O877        O  0.18697026  0.76538622  0.88755805    -0.79100
O878        O  0.16334382  0.72194727  0.87174855    -0.89400
C879        C  0.23133232  0.82319882  0.96368508     0.84500
O880        O  0.14520038  0.71308868  0.93898970    -0.67600
O881        O  0.30275927  0.77027586  0.60521245    -0.86900
C882        C  0.14039853  0.73854768  0.95115312     0.85400
C883        C  0.18434304  0.74133413  0.86681096     1.06900
H884        H  0.24167194  0.77224757  0.55131164     0.38700
O885        O  0.25928886  0.77145429  0.53710313    -1.09500
O886        O  0.30963160  0.73862795  0.51392509    -0.66200
Ni887      Ni  0.26420967  0.73193930  0.52229048     1.26300
O888        O  0.16077576  0.76038287  0.95099572    -0.66400
O889        O  0.28272510  0.72709813  0.57398988    -0.78700
C890        C  0.23875901  0.67538431  0.48950590     0.84700
O891        O  0.26553914  0.69237226  0.50541077    -0.65900
Ni892      Ni  0.29667079  0.79703592  0.56933471     1.27400
Ni893      Ni  0.20616216  0.76643957  0.94139445     1.26100
H894        H  0.23184725  0.72361356  0.92277470     0.39300
O895        O  0.20553265  0.67343951  0.71162620    -0.80700
O896        O  0.22914655  0.80953955  0.74580958    -0.65400
O897        O  0.23338765  0.73026172  0.71191983    -1.12000
C898        C  0.27498202  0.73760385  0.83939998     1.06200
O899        O  0.28375353  0.81681505  0.77642161    -0.78600
O900        O  0.32300950  0.77334630  0.78819222    -0.66200
Ni901      Ni  0.19417089  0.70491752  0.68374653     1.34900
C902        C  0.32366394  0.75204846  0.76243597     0.85000
O903        O  0.20927524  0.77587486  0.67658568    -0.79100
O904        O  0.18138491  0.73394207  0.65323587    -0.89400
C905        C  0.25661086  0.82606416  0.75968989     0.84500
O906        O  0.16555838  0.71734555  0.71787668    -0.67600
O907        O  0.29134535  0.76240304  0.84763676    -0.86900
C908        C  0.16259772  0.74221027  0.73452331     0.85400
C909        C  0.20277304  0.75404866  0.65060631     1.06900
H910        H  0.23197291  0.76337616  0.79160739     0.38700
O911        O  0.24961463  0.76314589  0.77745420    -1.09500
O912        O  0.29860960  0.73299361  0.74806922    -0.66200
Ni913      Ni  0.25595440  0.72429294  0.76135021     1.26300
O914        O  0.18431348  0.76384084  0.73789259    -0.66400
O915        O  0.27989872  0.72036561  0.81158022    -0.78700
C916        C  0.23416455  0.66701731  0.72933031     0.84700
O917        O  0.25951607  0.68568674  0.74361840    -0.65900
Ni918      Ni  0.28734725  0.78836775  0.81039278     1.27400
Ni919      Ni  0.22926542  0.77010794  0.72769571     1.26100
H920        H  0.24955397  0.72897660  0.69581829     0.39300
O921        O  0.01253709  0.54548432  0.00381380    -0.74200
O922        O  0.02002768  0.96154481  0.99513881    -0.74200
O923        O  0.01764010  0.00097551  0.94770232    -0.74300
O924        O  0.01603811  0.00925100  0.56135722    -0.74300
O925        O  0.47432777  0.50016381  0.54849675    -0.74300
O926        O  0.46341291  0.49303947  0.93728516    -0.74300
O927        O  0.47628939  0.96026119  0.49834883    -0.74200
O928        O  0.46930464  0.54105617  0.50164035    -0.74300
Ni929      Ni  0.02446407  0.00245678  0.00277369     1.25400
Ni930      Ni  0.46673635  0.50039979  0.49313246     1.25400
C931        C  0.98944696  0.55352130  0.50688219     0.88000
C932        C  0.99104747  0.94651099  0.98818113     0.87900
C933        C  0.98805973  0.99928333  0.92526441     0.87900
C934        C  0.98815104  0.49723130  0.56657300     0.88100
O935        O  0.03925803  0.96220844  0.75513440    -0.74200
O936        O  0.03068849  0.54464647  0.75937185    -0.74200
O937        O  0.03951778  0.00385257  0.81513406    -0.74300
O938        O  0.04077622  0.00177447  0.70737665    -0.74300
O939        O  0.46519857  0.48591500  0.68613868    -0.74300
O940        O  0.47480501  0.49574760  0.79730727    -0.74300
O941        O  0.46276449  0.53028839  0.74129920    -0.74200
O942        O  0.47709828  0.95740089  0.74240920    -0.74300
Ni943      Ni  0.04228465  0.00283086  0.76188900     1.25400
Ni944      Ni  0.46811356  0.49039598  0.74130298     1.25400
C945        C  0.01072604  0.94650390  0.74644902     0.88000
C946        C  0.00018804  0.55107338  0.75104454     0.87900
C947        C  0.01104857  0.50247693  0.82312088     0.87900
C948        C  0.01278955  0.00030943  0.68184762     0.88100
O949        O  0.20823339  0.50041959  0.54271397    -0.74200
O950        O  0.21600282  0.49302537  0.93771862    -0.74200
O951        O  0.22548273  0.95982646  0.49481523    -0.74300
O952        O  0.20788650  0.53975961  0.49412302    -0.74300
O953        O  0.26892471  0.54743406  0.00468855    -0.74300
O954        O  0.26424913  0.96128822  0.99809114    -0.74300
O955        O  0.26740115  0.00128054  0.95201437    -0.74200
O956        O  0.28296956  0.01387093  0.55983465    -0.74300
Ni957      Ni  0.20516597  0.49902055  0.48785995     1.25400
Ni958      Ni  0.26754163  0.00207239  0.00632408     1.25400
C959        C  0.23666208  0.50212247  0.56756298     0.88000
C960        C  0.23953501  0.99873229  0.92600707     0.87900
C961        C  0.23554759  0.94568584  0.98672953     0.87900
C962        C  0.23634849  0.55555380  0.50176519     0.88100
O963        O  0.23440500  0.49524068  0.79727640    -0.74200
O964        O  0.23464367  0.49119468  0.68794161    -0.74200
O965        O  0.22862616  0.95664252  0.74264600    -0.74300
O966        O  0.22747900  0.53224922  0.74489846    -0.74300
O967        O  0.28345198  0.54428884  0.75981219    -0.74300
O968        O  0.28470945  0.96094325  0.74990617    -0.74300
O969        O  0.27997407  0.00149189  0.70192895    -0.74200
O970        O  0.29068650  0.00184527  0.81304971    -0.74300
Ni971      Ni  0.23245273  0.49253161  0.74194298     1.25400
Ni972      Ni  0.28781017  0.00164068  0.75794211     1.25400
C973        C  0.26259573  0.50219698  0.82296520     0.88000
C974        C  0.24971345  0.99943386  0.68027129     0.87900
C975        C  0.25654034  0.94540694  0.74554764     0.87900
C976        C  0.25316162  0.55117593  0.75163538     0.88100
C977        C  0.23923930  0.99821706  0.88421723    -0.16200
C978        C  0.26463928  0.50354374  0.86551401    -0.31400
H979        H  0.21335688  0.48985412  0.86249519     0.12800
H980        H  0.29219121  0.00257729  0.88840026     0.13400
C981        C  0.23604882  0.50036318  0.60889492    -0.16200
C982        C  0.24281660  0.00000493  0.63746405    -0.31400
H983        H  0.29193246  0.01542249  0.63475393     0.12800
H984        H  0.28839580  0.49923452  0.62985339     0.13400
C985        C  0.98469109  0.99908619  0.88270414    -0.16200
C986        C  0.01303489  0.50330748  0.86557081    -0.31400
H987        H  0.46438177  0.99947516  0.86755746     0.12800
H988        H  0.03721453  0.51175822  0.88543840     0.13400
C989        C  0.98622090  0.49503562  0.60743351    -0.16200
C990        C  0.01417343  0.00191418  0.64077334    -0.31400
H991        H  0.96183247  0.00259973  0.61909178     0.12800
H992        H  0.46004403  0.48493064  0.61174742     0.13400
C993        C  0.27546956  0.60238129  0.75719043    -0.13100
C994        C  0.24775570  0.58107471  0.74798839     0.09000
C995        C  0.21519728  0.58823535  0.73254469    -0.13100
C996        C  0.21058246  0.61598466  0.72600713    -0.13100
C997        C  0.23840599  0.63723553  0.73502478     0.09000
C998        C  0.27085486  0.63005336  0.75089491    -0.13100
H999        H  0.30088800  0.59763157  0.76891389     0.13000
H1000       H  0.19330778  0.57225824  0.72482923     0.13800
H1001       H  0.18525944  0.62079201  0.71399297     0.13000
H1002       H  0.29293394  0.64582936  0.75829213     0.13000
C1003       C  0.28761269  0.87406235  0.76058455    -0.13100
C1004       C  0.25696135  0.85642691  0.75494672     0.09000
C1005       C  0.22623261  0.86804395  0.74442207    -0.13100
C1006       C  0.22608638  0.89665227  0.74030506    -0.13100
C1007       C  0.25666360  0.91439057  0.74620284     0.09000
C1008       C  0.28746599  0.90266368  0.75607063    -0.13100
H1009       H  0.31171379  0.86577643  0.76850944     0.13000
H1010       H  0.20213971  0.85510532  0.73995953     0.13000
H1011       H  0.20194531  0.90497519  0.73303904     0.13000
H1012       H  0.31154456  0.91575453  0.76119649     0.13000
C1013       C  0.20669879  0.59793882  0.48627130    -0.13100
C1014       C  0.23672760  0.58660376  0.50122543     0.09000
C1015       C  0.26735090  0.60489023  0.51299423    -0.13100
C1016       C  0.26796657  0.63372047  0.50964620    -0.13100
C1017       C  0.23802616  0.64493451  0.49402851     0.09000
C1018       C  0.20736174  0.62668246  0.48256839    -0.13100
H1019       H  0.17758910  0.57474466  0.97631670     0.13000
H1020       H  0.29096637  0.59685723  0.52443205     0.13000
H1021       H  0.29203874  0.64713385  0.51875044     0.13000
H1022       H  0.16780819  0.62211136  0.96176715     0.13000
C1023       C  0.29004096  0.91256675  0.51663617    -0.13100
C1024       C  0.23444947  0.91431788  0.97945678     0.09000
C1025       C  0.20367916  0.89687909  0.96221454    -0.13100
C1026       C  0.20265690  0.86721393  0.95581272    -0.13100
C1027       C  0.23236989  0.85443488  0.96662877     0.09000
C1028       C  0.29205035  0.88430680  0.52242843    -0.13100
H1029       H  0.31275832  0.92767298  0.52605227     0.13000
H1030       H  0.18031123  0.90614400  0.95386150     0.13000
H1031       H  0.17853987  0.85431013  0.94311627     0.13000
H1032       H  0.31638251  0.87819330  0.53564559     0.13000
C1033       C  0.24245887  0.73398391  0.84864847    -0.13100
C1034       C  0.21426356  0.73445372  0.85411264    -0.14600
C1035       C  0.22896264  0.74858588  0.63034964    -0.13100
C1036       C  0.25434823  0.74734748  0.61827294    -0.14600
C1037       C  0.01758593  0.63090048  0.75697141    -0.13100
C1038       C  0.47953327  0.63576311  0.72751172     0.09000
C1039       C  0.45163755  0.61457291  0.71238978    -0.13100
C1040       C  0.45375320  0.58651070  0.71937944    -0.13100
C1041       C  0.48388909  0.57902870  0.74134304     0.09000
C1042       C  0.02180846  0.60285240  0.76165113    -0.13100
H1043       H  0.03951962  0.64679803  0.76720848     0.13000
H1044       H  0.42828060  0.61961404  0.69497824     0.13000
H1045       H  0.43222569  0.57051410  0.70664229     0.13000
H1046       H  0.04678105  0.59809271  0.77516351     0.13000
C1047       C  0.47390454  0.86781096  0.73860054    -0.13100
C1048       C  0.00890378  0.85775321  0.75730136     0.09000
C1049       C  0.03969815  0.87573565  0.76742309    -0.13100
C1050       C  0.04042157  0.90421430  0.76230298    -0.13100
C1051       C  0.01032730  0.91550744  0.74726730     0.09000
C1052       C  0.47395680  0.89673345  0.73604840    -0.13100
H1053       H  0.44973740  0.85468848  0.73243702     0.13000
H1054       H  0.06323625  0.86787966  0.77961121     0.13000
H1055       H  0.06451563  0.91760036  0.77119067     0.13000
H1056       H  0.44990955  0.90509951  0.72815311     0.13000
C1057       C  0.35446777  0.74905744  0.74875083    -0.13100
C1058       C  0.37979939  0.74575635  0.73660610    -0.14600
C1059       C  0.13237161  0.74632810  0.74927061    -0.13100
C1060       C  0.10613928  0.74970569  0.75962312    -0.14600
C1061       C  0.02013364  0.63245049  0.52215176    -0.13100
C1062       C  0.49324118  0.64566181  0.49632707     0.09000
C1063       C  0.46353453  0.62786107  0.49443194    -0.13100
C1064       C  0.46505753  0.59942716  0.49923390    -0.13100
C1065       C  0.49628572  0.58798018  0.50559134     0.09000
C1066       C  0.01973857  0.60334229  0.52365226    -0.13100
H1067       H  0.04417558  0.64588381  0.53185980     0.13000
H1068       H  0.43909325  0.63590342  0.48921839     0.13000
H1069       H  0.42667164  0.57595904  0.97515249     0.13000
H1070       H  0.04344393  0.59517638  0.53434585     0.13000
C1071       C  0.45723369  0.86955684  0.95539160    -0.13100
C1072       C  0.98439150  0.85517021  0.97036943     0.09000
C1073       C  0.01589903  0.87178459  0.97690599    -0.13100
C1074       C  0.03604187  0.91047237  0.51734555    -0.13100
C1075       C  0.98871352  0.91509393  0.98154350     0.09000
C1076       C  0.46001686  0.89933346  0.96168269    -0.13100
H1077       H  0.43272496  0.85750603  0.94184624     0.13000
H1078       H  0.06558802  0.87722919  0.53455936     0.13000
H1079       H  0.05830747  0.92589695  0.52303852     0.13000
H1080       H  0.43753916  0.90957090  0.95250091     0.13000
C1081       C  0.36104129  0.74556536  0.96966129    -0.13100
C1082       C  0.36459636  0.75592906  0.51089347    -0.14600
C1083       C  0.10983679  0.74282021  0.96545468    -0.13100
C1084       C  0.11590831  0.75486288  0.51254289    -0.14600
C1085       C  0.98867452  0.73543965  0.85214467    -0.13100
C1086       C  0.45740677  0.73319293  0.85243439    -0.14600
C1087       C  0.01054466  0.74932241  0.62481520    -0.13100
C1088       C  0.48318210  0.74856243  0.62415094    -0.14600
O1089       O  0.93575117  0.17295146  0.44958434    -0.80700
O1090       O  0.95809702  0.30746577  0.45328812    -0.65400
O1091       O  0.46598024  0.22995604  0.43958352    -1.12000
C1092       C  0.54617966  0.24965787  0.10790928     1.06200
O1093       O  0.54602142  0.32797419  0.04247419    -0.78600
O1094       O  0.58818471  0.28578858  0.04509627    -0.66200
Ni1095     Ni  0.92591392  0.19960197  0.41377634     1.34900
C1096       C  0.59214102  0.26130648  0.02821932     0.85000
O1097       O  0.93807597  0.26624081  0.39144776    -0.79100
O1098       O  0.91362672  0.22305595  0.37501674    -0.89400
C1099       C  0.48677060  0.32655996  0.46810816     0.84500
O1100       O  0.89560810  0.21620874  0.44288303    -0.67600
O1101       O  0.56686718  0.27106892  0.10798366    -0.86900
C1102       C  0.89257383  0.24193504  0.45586045     0.85400
C1103       C  0.93476999  0.24234056  0.37022580     1.06900
H1104       H  0.99949571  0.26983822  0.05106034     0.38700
O1105       O  0.01637128  0.26879057  0.03586808    -1.09500
O1106       O  0.57046648  0.23935632  0.02264098    -0.66200
Ni1107     Ni  0.52491243  0.23200630  0.03032989     1.26300
O1108       O  0.91440823  0.26295886  0.45654705    -0.66400
O1109       O  0.54360995  0.22789459  0.08246180    -0.78700
C1110       C  0.99533881  0.17300816  0.98897728     0.84700
O1111       O  0.52707867  0.19246714  0.01445291    -0.65900
Ni1112     Ni  0.55568553  0.29828329  0.07389709     1.27400
Ni1113     Ni  0.95904044  0.26721258  0.44467507     1.26100
H1114       H  0.48411662  0.22690163  0.42658713     0.39300
O1115       O  0.95269071  0.17561200  0.20746221    -0.80700
O1116       O  0.98350386  0.31083157  0.23991545    -0.65400
O1117       O  0.48654067  0.22838166  0.21118596    -1.12000
C1118       C  0.52542368  0.23779806  0.33974654     1.06200
O1119       O  0.53155310  0.31698066  0.27606392    -0.78600
O1120       O  0.57247539  0.27446282  0.28541860    -0.66200
Ni1121     Ni  0.94655208  0.20628314  0.17676000     1.34900
C1122       C  0.57489292  0.25169091  0.26318519     0.85000
O1123       O  0.96448384  0.27654583  0.17101874    -0.79100
O1124       O  0.93898019  0.23433874  0.14302270    -0.89400
C1125       C  0.50405751  0.32458267  0.25736590     0.84500
O1126       O  0.91494892  0.22077270  0.20563167    -0.67600
O1127       O  0.54391286  0.26152009  0.34552906    -0.86900
C1128       C  0.91340973  0.24511509  0.22482586     0.85400
C1129       C  0.96099202  0.25525196  0.14452618     1.06900
H1130       H  0.98266066  0.26484814  0.28664757     0.38700
O1131       O  0.00068605  0.26400751  0.27305407    -1.09500
O1132       O  0.55140280  0.23082852  0.25159713    -0.66200
Ni1133     Ni  0.50698113  0.22259505  0.26163011     1.26300
O1134       O  0.93682486  0.26596917  0.23147853    -0.66400
O1135       O  0.52819159  0.21854995  0.31293867    -0.78700
C1136       C  0.97993151  0.16784853  0.22653861     0.84700
O1137       O  0.50925239  0.18325671  0.24502737    -0.65900
Ni1138     Ni  0.53728156  0.28799558  0.30917605     1.27400
Ni1139     Ni  0.98243824  0.27100960  0.22266990     1.26100
H1140       H  0.50398399  0.22775307  0.19674239     0.39300
O1141       O  0.68956737  0.17301760  0.44804164    -0.80700
O1142       O  0.70208219  0.30799812  0.44942589    -0.65400
O1143       O  0.71440914  0.22814962  0.43720263    -1.12000
C1144       C  0.79555664  0.24824503  0.10584013     1.06200
O1145       O  0.80051053  0.32832570  0.04450141    -0.78600
O1146       O  0.83907897  0.28354956  0.04326486    -0.66200
Ni1147     Ni  0.67765539  0.19897701  0.41158103     1.34900
C1148       C  0.84093220  0.25898297  0.02482218     0.85000
O1149       O  0.68458707  0.26574657  0.38814538    -0.79100
O1150       O  0.66384598  0.22159490  0.37205709    -0.89400
C1151       C  0.72972706  0.32465107  0.46109252     0.84500
O1152       O  0.64589113  0.21383290  0.44009358    -0.67600
O1153       O  0.81747037  0.26887086  0.10638979    -0.86900
C1154       C  0.64110994  0.23914236  0.45303806     0.85400
C1155       C  0.68373173  0.24195594  0.36752353     1.06900
H1156       H  0.75162625  0.27386210  0.05734810     0.38700
O1157       O  0.76897993  0.27226555  0.04286386    -1.09500
O1158       O  0.81806129  0.23796950  0.01915753    -0.66200
Ni1159     Ni  0.77297814  0.23223496  0.02824440     1.26300
O1160       O  0.66115155  0.26120093  0.45309567    -0.66400
O1161       O  0.79177969  0.22680933  0.07970776    -0.78700
C1162       C  0.74711215  0.17593021  0.99694800     0.84700
O1163       O  0.77399311  0.19286206  0.01158657    -0.65900
Ni1164     Ni  0.80803400  0.29716537  0.07370120     1.27400
Ni1165     Ni  0.70558420  0.26784123  0.44165190     1.26100
H1166       H  0.73240254  0.22548518  0.42387766     0.39300
O1167       O  0.70586112  0.17687049  0.21537731    -0.80700
O1168       O  0.73089896  0.31053325  0.24215235    -0.65400
O1169       O  0.73673345  0.23134441  0.21224399    -1.12000
C1170       C  0.77514855  0.24123314  0.34071826     1.06200
O1171       O  0.78519041  0.31849447  0.27411245    -0.78600
O1172       O  0.82464729  0.27583065  0.28921470    -0.66200
Ni1173     Ni  0.69924410  0.20536428  0.18153436     1.34900
C1174       C  0.82620400  0.25403824  0.26464280     0.85000
O1175       O  0.71125305  0.27486488  0.17450596    -0.79100
O1176       O  0.69162671  0.23140848  0.14475703    -0.89400
C1177       C  0.75830923  0.32718362  0.25565364     0.84500
O1178       O  0.66558899  0.21987943  0.20704693    -0.67600
O1179       O  0.79118264  0.26618536  0.34816059    -0.86900
C1180       C  0.66355674  0.24366085  0.22724997     0.85400
C1181       C  0.71101525  0.25435151  0.14789212     1.06900
H1182       H  0.73373900  0.26577947  0.29042307     0.38700
O1183       O  0.75163456  0.26527198  0.27663804    -1.09500
O1184       O  0.80167210  0.23426544  0.25088529    -0.66200
Ni1185     Ni  0.75794852  0.22617656  0.26265407     1.26300
O1186       O  0.68702697  0.26452729  0.23620581    -0.66400
O1187       O  0.78057112  0.22334558  0.31385904    -0.78700
C1188       C  0.73355191  0.16916445  0.23344975     0.84700
O1189       O  0.76023909  0.18676451  0.24681223    -0.65900
Ni1190     Ni  0.78825830  0.29115130  0.30963557     1.27400
Ni1191     Ni  0.73173189  0.27094156  0.22608685     1.26100
H1192       H  0.75387809  0.23026001  0.19741085     0.39300
O1193       O  0.51902387  0.04931080  0.50459961    -0.74200
O1194       O  0.52380094  0.46451917  0.49299831    -0.74200
O1195       O  0.51960661  0.50429448  0.44608132    -0.74300
O1196       O  0.52822504  0.51229092  0.05755018    -0.74300
O1197       O  0.97206824  0.99942688  0.05043994    -0.74300
O1198       O  0.96103448  0.99016385  0.43673061    -0.74300
O1199       O  0.97039235  0.45519078  0.98923084    -0.74200
O1200       O  0.96814704  0.03924494  0.00176494    -0.74300
Ni1201     Ni  0.52682383  0.50545429  0.50129029     1.25400
Ni1202     Ni  0.96439436  0.99865077  0.99443854     1.25400
C1203       C  0.50005304  0.05542312  0.01046800     0.88000
C1204       C  0.49512322  0.44896119  0.48550204     0.87900
C1205       C  0.48969782  0.50187763  0.42407664     0.87900
C1206       C  0.50385479  0.00046774  0.07350626     0.88100
O1207       O  0.52543022  0.45856817  0.24331114    -0.74200
O1208       O  0.51959109  0.04011165  0.25686273    -0.74200
O1209       O  0.53162417  0.49984131  0.30564748    -0.74300
O1210       O  0.51951457  0.49851889  0.19510733    -0.74300
O1211       O  0.96578367  0.98875494  0.19143911    -0.74300
O1212       O  0.97725258  0.99719048  0.30250502    -0.74300
O1213       O  0.96478777  0.03270707  0.24804391    -0.74200
O1214       O  0.98838866  0.45797062  0.23695366    -0.74300
Ni1215     Ni  0.52774530  0.49906652  0.25072528     1.25400
Ni1216     Ni  0.96977020  0.99263700  0.24667011     1.25400
C1217       C  0.49772115  0.44263860  0.23977145     0.88000
C1218       C  0.48981325  0.04799290  0.25179126     0.87900
C1219       C  0.50407184  0.99976348  0.32360363     0.87900
C1220       C  0.48930426  0.49604397  0.17351996     0.88100
O1221       O  0.72329421  0.00014537  0.05087245    -0.74200
O1222       O  0.71582319  0.99423900  0.44130305    -0.74200
O1223       O  0.73223302  0.45851672  0.98802822    -0.74300
O1224       O  0.71960569  0.04132560  0.00479980    -0.74300
O1225       O  0.77093253  0.04863049  0.50599313    -0.74300
O1226       O  0.76455163  0.46233392  0.49286817    -0.74300
O1227       O  0.76592037  0.50216676  0.44643337    -0.74200
O1228       O  0.77213903  0.51432501  0.06340465    -0.74300
Ni1229     Ni  0.71640547  0.00082200  0.99547481     1.25400
Ni1230     Ni  0.76893656  0.50316442  0.50137903     1.25400
C1231       C  0.75324850  0.00198199  0.07298266     0.88000
C1232       C  0.73730434  0.50016069  0.42173619     0.87900
C1233       C  0.73552452  0.44715660  0.48265000     0.87900
C1234       C  0.74781573  0.05701303  0.01040862     0.88100
O1235       O  0.72632612  0.99737901  0.30157297    -0.74200
O1236       O  0.71476627  0.98899149  0.19052664    -0.74200
O1237       O  0.73274948  0.45726158  0.23397368    -0.74300
O1238       O  0.71540647  0.03312193  0.24762139    -0.74300
O1239       O  0.77133380  0.04298167  0.25641864    -0.74300
O1240       O  0.78925853  0.46168616  0.24938929    -0.74300
O1241       O  0.79075536  0.50330558  0.20490471    -0.74200
O1242       O  0.79047128  0.50142963  0.31197142    -0.74300
Ni1243     Ni  0.71875890  0.99283551  0.24574946     1.25400
Ni1244     Ni  0.79262965  0.50237752  0.25897340     1.25400
C1245       C  0.75622632  0.00311160  0.32386638     0.88000
C1246       C  0.76280636  0.50232248  0.17949595     0.87900
C1247       C  0.76064873  0.44603447  0.24013229     0.87900
C1248       C  0.74170507  0.05114961  0.25186132     0.88100
C1249       C  0.73569737  0.49933032  0.37948254    -0.16200
C1250       C  0.76149089  0.00457365  0.36674586    -0.31400
H1251       H  0.71110496  0.98991367  0.36637564     0.12800
H1252       H  0.78817615  0.50004441  0.38368741     0.13400
C1253       C  0.75886374  0.00089964  0.11540235    -0.16200
C1254       C  0.76486143  0.50499054  0.13887836    -0.31400
H1255       H  0.71255905  0.50294115  0.11311029     0.12800
H1256       H  0.70831583  0.98802464  0.11598183     0.13400
C1257       C  0.48482603  0.50047547  0.38136061    -0.16200
C1258       C  0.50901802  0.00160731  0.36659901    -0.31400
H1259       H  0.96474520  0.49841963  0.36194883     0.12800
H1260       H  0.53455601  0.00845335  0.38420500     0.13400
C1261       C  0.50909494  0.99940093  0.11590986    -0.16200
C1262       C  0.48335412  0.49704601  0.13097801    -0.31400
H1263       H  0.53303751  0.51365641  0.13177082     0.12800
H1264       H  0.95868707  0.98725550  0.11689098     0.13400
C1265       C  0.76693040  0.10213450  0.26408982    -0.13100
C1266       C  0.73831154  0.08168264  0.25015240     0.09000
C1267       C  0.70750049  0.09047044  0.23204693    -0.13100
C1268       C  0.70571085  0.11888839  0.22690856    -0.13100
C1269       C  0.73464207  0.13918477  0.24003385     0.09000
C1270       C  0.76509354  0.13046974  0.25928450    -0.13100
H1271       H  0.79103136  0.09614532  0.27831626     0.13000
H1272       H  0.68505643  0.07520336  0.22074088     0.13800
H1273       H  0.68179145  0.12485024  0.21213857     0.13000
H1274       H  0.78783290  0.14546285  0.27010972     0.13000
C1275       C  0.78999588  0.37468615  0.25656014    -0.13100
C1276       C  0.75910647  0.35704510  0.24868062     0.09000
C1277       C  0.72882000  0.36833666  0.23445203    -0.13100
C1278       C  0.72931164  0.39692823  0.22994641    -0.13100
C1279       C  0.76013562  0.41484529  0.23922798     0.09000
C1280       C  0.79051521  0.40317257  0.25170863    -0.13100
H1281       H  0.81380038  0.36660640  0.26706008     0.13000
H1282       H  0.70456620  0.35528351  0.22781614     0.13000
H1283       H  0.70545944  0.40518455  0.22027854     0.13000
H1284       H  0.81474582  0.41631895  0.25911359     0.13000
C1285       C  0.71716917  0.09827706  0.99378719    -0.13100
C1286       C  0.74726929  0.08798647  0.01106591     0.09000
C1287       C  0.77689776  0.10715899  0.02560244    -0.13100
C1288       C  0.77662545  0.13586133  0.02188475    -0.13100
C1289       C  0.74683185  0.14589233  0.00301673     0.09000
C1290       C  0.71699360  0.12682533  0.98959792    -0.13100
H1291       H  0.68093626  0.07509801  0.47041334     0.13000
H1292       H  0.80039233  0.09987497  0.03921027     0.13000
H1293       H  0.80001041  0.15004708  0.03298482     0.13000
H1294       H  0.67113798  0.12257267  0.45703373     0.13000
C1295       C  0.79547140  0.41575058  0.03196340    -0.13100
C1296       C  0.73369935  0.41575550  0.47517920     0.09000
C1297       C  0.70238899  0.39857660  0.46010396    -0.13100
C1298       C  0.70089567  0.36884195  0.45413649    -0.13100
C1299       C  0.73068787  0.35582386  0.46318867     0.09000
C1300       C  0.79790861  0.38753759  0.03800173    -0.13100
H1301       H  0.81583317  0.43216635  0.04738479     0.13000
H1302       H  0.67900779  0.40809431  0.45329005     0.13000
H1303       H  0.67644969  0.35610418  0.44328149     0.13000
H1304       H  0.82027078  0.38284332  0.05762320     0.13000
C1305       C  0.74270234  0.23737539  0.35011924    -0.13100
C1306       C  0.71437267  0.23676696  0.35538722    -0.14600
C1307       C  0.74053228  0.25370598  0.13222383    -0.13100
C1308       C  0.76697441  0.25270743  0.12240072    -0.14600
C1309       C  0.51307714  0.12733400  0.25952507    -0.13100
C1310       C  0.98126616  0.13792909  0.23344109     0.09000
C1311       C  0.95192042  0.11829182  0.22642123    -0.13100
C1312       C  0.95441656  0.09028829  0.23366423    -0.13100
C1313       C  0.98631483  0.08137777  0.24780088     0.09000
C1314       C  0.51462359  0.09909521  0.26493352    -0.13100
H1315       H  0.53566046  0.14240352  0.27118059     0.13000
H1316       H  0.92713138  0.12453310  0.21530518     0.13000
H1317       H  0.93154258  0.07547051  0.22732933     0.13000
H1318       H  0.53838078  0.09325902  0.28036222     0.13000
C1319       C  0.98426184  0.36871438  0.23228437    -0.13100
C1320       C  0.50252203  0.35460123  0.25166593     0.09000
C1321       C  0.53216499  0.37387219  0.26061556    -0.13100
C1322       C  0.53053598  0.40212334  0.25529186    -0.13100
C1323       C  0.49918423  0.41193868  0.24133436     0.09000
C1324       C  0.98554051  0.39758256  0.22907079    -0.13100
H1325       H  0.96018473  0.35543570  0.22140703     0.13000
H1326       H  0.55666838  0.36715327  0.27182290     0.13000
H1327       H  0.55387557  0.41649454  0.26312472     0.13000
H1328       H  0.96242891  0.40569174  0.21605359     0.13000
C1329       C  0.85748415  0.25162753  0.25149465    -0.13100
C1330       C  0.88324090  0.24916719  0.23975799    -0.14600
C1331       C  0.63263478  0.24711459  0.24041249    -0.13100
C1332       C  0.60627888  0.24933314  0.25068030    -0.14600
C1333       C  0.53074873  0.13374320  0.01753207    -0.13100
C1334       C  0.99555348  0.14282178  0.99410500     0.09000
C1335       C  0.96507245  0.12501997  0.98832080    -0.13100
C1336       C  0.96548288  0.09666965  0.99359267    -0.13100
C1337       C  0.99639103  0.08532048  0.00433259     0.09000
C1338       C  0.53081850  0.10487145  0.02062962    -0.13100
H1339       H  0.55480184  0.14710671  0.02441972     0.13000
H1340       H  0.94086229  0.13300862  0.97979739     0.13000
H1341       H  0.92016589  0.07425045  0.46864627     0.13000
H1342       H  0.55485978  0.09673481  0.02964976     0.13000
C1343       C  0.95683448  0.36710955  0.45675290    -0.13100
C1344       C  0.48888275  0.35760934  0.46864437     0.09000
C1345       C  0.52070315  0.37430752  0.47884734    -0.13100
C1346       C  0.53984711  0.41286070  0.02107055    -0.13100
C1347       C  0.49330991  0.41754873  0.47824284     0.09000
C1348       C  0.95759981  0.39667001  0.46175759    -0.13100
H1349       H  0.93248900  0.35409232  0.44753895     0.13000
H1350       H  0.56716240  0.38029173  0.04406388     0.13000
H1351       H  0.56153651  0.42893260  0.03216136     0.13000
H1352       H  0.93378233  0.40566166  0.45593197     0.13000
C1353       C  0.86207530  0.24743944  0.46955553    -0.13100
C1354       C  0.87077136  0.25437332  0.00973599    -0.14600
C1355       C  0.61094792  0.24308273  0.46802656    -0.13100
C1356       C  0.62318745  0.25812017  0.01506061    -0.14600
C1357       C  0.49354815  0.23697337  0.35079733    -0.13100
C1358       C  0.96391422  0.23528020  0.35610086    -0.14600
C1359       C  0.51714925  0.25320303  0.12375765    -0.13100
C1360       C  0.98938187  0.25129088  0.12717330    -0.14600
O1361       O  0.96803063  0.18179216  0.97178990    -0.80700
O1362       O  0.99153928  0.31338233  0.00327640    -0.65400
O1363       O  0.50642005  0.23763570  0.97932670    -1.12000
C1364       C  0.51083617  0.25378263  0.57414229     1.06200
O1365       O  0.51361464  0.31577317  0.48095573    -0.78600
O1366       O  0.55303631  0.27774671  0.50882588    -0.66200
Ni1367     Ni  0.96390126  0.21012931  0.93767472     1.34900
C1368       C  0.55433823  0.25284703  0.49174764     0.85000
O1369       O  0.97135048  0.27833199  0.93542239    -0.79100
O1370       O  0.95940382  0.23590060  0.90021431    -0.89400
C1371       C  0.51810576  0.33400819  0.02254002     0.84500
O1372       O  0.92807133  0.22493076  0.95983341    -0.67600
O1373       O  0.52024197  0.27877493  0.56929557    -0.86900
C1374       C  0.92695030  0.24680577  0.98449269     0.85400
C1375       C  0.97580865  0.26067122  0.90778611     1.06900
H1376       H  0.96323414  0.27045008  0.51230825     0.38700
O1377       O  0.97991894  0.26713890  0.49715330    -1.09500
O1378       O  0.52957317  0.23330149  0.48419962    -0.66200
Ni1379     Ni  0.48408328  0.23007050  0.49309741     1.26300
O1380       O  0.95168297  0.26622814  0.99821422    -0.66400
O1381       O  0.50043996  0.23224934  0.54733941    -0.78700
C1382       C  0.96325842  0.16827136  0.47164428     0.84700
O1383       O  0.48758991  0.19039036  0.48650049    -0.65900
Ni1384     Ni  0.51693014  0.29635783  0.52440570     1.27400
Ni1385     Ni  0.99479975  0.27461221  0.98598443     1.26100
H1386       H  0.52493550  0.23798947  0.96645665     0.39300
O1387       O  0.99318845  0.18784255  0.77304664    -0.80700
O1388       O  0.01641296  0.31255019  0.76447983    -0.65400
O1389       O  0.52803629  0.23310241  0.75624441    -1.12000
C1390       C  0.57117304  0.25925049  0.88282963     1.06200
O1391       O  0.56248229  0.33013407  0.80674302    -0.78600
O1392       O  0.60481852  0.28741478  0.80570109    -0.66200
Ni1393     Ni  0.98949898  0.20593552  0.72858718     1.34900
C1394       C  0.61101325  0.26189572  0.79610682     0.85000
O1395       O  0.00423140  0.26959381  0.70396278    -0.79100
O1396       O  0.98677723  0.22254421  0.68297438    -0.89400
C1397       C  0.53550924  0.33243072  0.78173244     0.84500
O1398       O  0.95220482  0.22392678  0.74225241    -0.67600
O1399       O  0.59204305  0.27692485  0.87434357    -0.86900
C1400       C  0.94986005  0.24863561  0.75921943     0.85400
C1401       C  0.99606348  0.24745027  0.67767169     1.06900
H1402       H  0.02033082  0.27664659  0.82512275     0.38700
O1403       O  0.03869477  0.27367761  0.81248661    -1.09500
O1404       O  0.59247106  0.23995254  0.79987234    -0.66200
Ni1405     Ni  0.54696381  0.23344257  0.80929647     1.26300
O1406       O  0.97430370  0.26868421  0.76738071    -0.66400
O1407       O  0.56586191  0.23465809  0.86324862    -0.78700
C1408       C  0.02024101  0.17705789  0.78497773     0.84700
O1409       O  0.54954124  0.19307508  0.80118946    -0.65900
Ni1410     Ni  0.57643182  0.30187126  0.83907600     1.27400
Ni1411     Ni  0.02024298  0.27275164  0.75872027     1.26100
H1412       H  0.54566760  0.23050840  0.74227304     0.39300
O1413       O  0.72034540  0.18437423  0.97803798    -0.80700
O1414       O  0.74753394  0.31763733  0.00871503    -0.65400
O1415       O  0.75409279  0.23868976  0.97768407    -1.12000
C1416       C  0.75936695  0.25670528  0.57121032     1.06200
O1417       O  0.75719091  0.31443460  0.47312143    -0.78600
O1418       O  0.80036454  0.28047876  0.50627028    -0.66200
Ni1419     Ni  0.71605987  0.21350603  0.94520360     1.34900
C1420       C  0.80334758  0.25594506  0.48926818     0.85000
O1421       O  0.72909396  0.28280149  0.94084575    -0.79100
O1422       O  0.71022945  0.23998362  0.90898328    -0.89400
C1423       C  0.77331787  0.33562248  0.02479230     0.84500
O1424       O  0.68177176  0.22823536  0.96963261    -0.67600
O1425       O  0.76602720  0.28192911  0.56522687    -0.86900
C1426       C  0.68035963  0.25148020  0.99144540     0.85400
C1427       C  0.72998062  0.26290721  0.91393164     1.06900
H1428       H  0.70896845  0.27107836  0.50919103     0.38700
O1429       O  0.72612936  0.26865215  0.49450326    -1.09500
O1430       O  0.77937457  0.23558138  0.48054327    -0.66200
Ni1431     Ni  0.73442107  0.23011868  0.49076333     1.26300
O1432       O  0.70461532  0.27168858  0.00221625    -0.66400
O1433       O  0.75238477  0.23429938  0.54532519    -0.78700
C1434       C  0.71754211  0.16993533  0.47074681     0.84700
O1435       O  0.74050644  0.19067417  0.48558449    -0.65900
Ni1436     Ni  0.76214349  0.29761780  0.51880435     1.27400
Ni1437     Ni  0.74932529  0.27830919  0.99228355     1.26100
H1438       H  0.77192572  0.23755957  0.96383409     0.39300
O1439       O  0.74000324  0.18619274  0.76807310    -0.80700
O1440       O  0.76477542  0.31130751  0.76445689    -0.65400
O1441       O  0.77436158  0.23266268  0.75035607    -1.12000
C1442       C  0.81671388  0.25327080  0.87792229     1.06200
O1443       O  0.81381615  0.32781615  0.80700054    -0.78600
O1444       O  0.85542533  0.28488556  0.80770499    -0.66200
Ni1445     Ni  0.73644494  0.20559048  0.72459083     1.34900
C1446       C  0.86014817  0.25967253  0.79415113     0.85000
O1447       O  0.75213746  0.27002018  0.70268372    -0.79100
O1448       O  0.73336291  0.22337653  0.67986033    -0.89400
C1449       C  0.78741509  0.33156745  0.78218314     0.84500
O1450       O  0.69977459  0.22370703  0.73979711    -0.67600
O1451       O  0.83803052  0.27255830  0.87351367    -0.86900
C1452       C  0.69826065  0.24831215  0.75768725     0.85400
C1453       C  0.74282612  0.24852180  0.67554307     1.06900
H1454       H  0.76892199  0.27359460  0.82364027     0.38700
O1455       O  0.78702213  0.27118142  0.81039478    -1.09500
O1456       O  0.83949095  0.23755967  0.79293360    -0.66200
Ni1457     Ni  0.79388173  0.23104405  0.80254411     1.26300
O1458       O  0.72307439  0.26790043  0.76609242    -0.66400
O1459       O  0.81287799  0.22982592  0.85568135    -0.78700
C1460       C  0.76690933  0.17531540  0.78048131     0.84700
O1461       O  0.79529753  0.19094768  0.79145808    -0.65900
Ni1462     Ni  0.82487744  0.29857418  0.83866008     1.27400
Ni1463     Ni  0.76857589  0.27171690  0.75699390     1.26100
H1464       H  0.79148368  0.22992711  0.73567080     0.39300
O1465       O  0.52779406  0.04393019  0.01327447    -0.74200
O1466       O  0.53004641  0.46850481  0.00140967    -0.74200
O1467       O  0.51924427  0.50380950  0.94653406    -0.74300
O1468       O  0.53043827  0.50590763  0.55601312    -0.74300
O1469       O  0.95989676  0.99818794  0.54493548    -0.74300
O1470       O  0.96147415  0.99785346  0.93923749    -0.74300
O1471       O  0.96096725  0.45641035  0.47774961    -0.74200
O1472       O  0.95337193  0.03351747  0.49061827    -0.74300
Ni1473     Ni  0.52565896  0.50844581  0.00248705     1.25400
Ni1474     Ni  0.95862945  0.99382126  0.49027029     1.25400
C1475       C  0.48880242  0.05657279  0.49990142     0.88000
C1476       C  0.50416277  0.45005862  0.99706143     0.87900
C1477       C  0.48960915  0.49769893  0.92356967     0.87900
C1478       C  0.50797414  0.01058229  0.57634176     0.88100
O1479       O  0.53320258  0.46374675  0.75060374    -0.74200
O1480       O  0.53770633  0.04222383  0.76654242    -0.74200
O1481       O  0.53044956  0.50745804  0.80627457    -0.74300
O1482       O  0.52070324  0.49834637  0.69506591    -0.74300
O1483       O  0.98428722  0.99785907  0.69170550    -0.74300
O1484       O  0.98297849  0.99915761  0.79984267    -0.74300
O1485       O  0.98534850  0.03904384  0.75306538    -0.74200
O1486       O  0.99113590  0.45335672  0.74101765    -0.74300
Ni1487     Ni  0.52762090  0.50320113  0.75108264     1.25400
Ni1488     Ni  0.98179297  0.99818551  0.74522232     1.25400
C1489       C  0.50821105  0.44487286  0.74795155     0.88000
C1490       C  0.51063500  0.05419823  0.76549494     0.87900
C1491       C  0.51313901  0.00087449  0.82659680     0.87900
C1492       C  0.49102019  0.49169115  0.67229868     0.88100
O1493       O  0.72736255  0.00218473  0.55283804    -0.74200
O1494       O  0.71426374  0.00141714  0.94097387    -0.74200
O1495       O  0.70806001  0.45885262  0.47876631    -0.74300
O1496       O  0.71530190  0.03776017  0.49840738    -0.74300
O1497       O  0.77583965  0.04597901  0.01309709    -0.74300
O1498       O  0.78725997  0.47234978  0.01335485    -0.74300
O1499       O  0.78628785  0.50809767  0.95957955    -0.74200
O1500       O  0.76819226  0.50335916  0.55562091    -0.74300
Ni1501     Ni  0.71940933  0.99800087  0.49664153     1.25400
Ni1502     Ni  0.78087139  0.51185432  0.01229307     1.25400
C1503       C  0.75743622  0.00803638  0.57497857     0.88000
C1504       C  0.76120885  0.50089176  0.92993353     0.87900
C1505       C  0.76208395  0.45263169  0.00229399     0.87900
C1506       C  0.74081650  0.05608607  0.50100325     0.88100
O1507       O  0.73033022  0.99948746  0.80285284    -0.74200
O1508       O  0.72000357  0.99581933  0.69286630    -0.74200
O1509       O  0.73667109  0.45109229  0.73595361    -0.74300
O1510       O  0.72757131  0.03825952  0.75489227    -0.74300
O1511       O  0.78377415  0.04152379  0.76323423    -0.74300
O1512       O  0.79207594  0.46453779  0.75866952    -0.74300
O1513       O  0.78930993  0.50165055  0.70623067    -0.74200
O1514       O  0.77850831  0.50513998  0.81223513    -0.74300
Ni1515     Ni  0.72352276  0.99738214  0.74766774     1.25400
Ni1516     Ni  0.78615389  0.50388749  0.76015831     1.25400
C1517       C  0.76002655  0.00181578  0.82520781     0.88000
C1518       C  0.76300355  0.49567763  0.67760307     0.87900
C1519       C  0.76686000  0.44501688  0.74887289     0.87900
C1520       C  0.75656433  0.05329850  0.76218284     0.88100
C1521       C  0.76773299  0.50096166  0.89028708    -0.16200
C1522       C  0.76401164  0.00334787  0.86790691    -0.31400
H1523       H  0.71175581  0.00089853  0.86698718     0.12800
H1524       H  0.71664599  0.49493239  0.85972753     0.13400
C1525       C  0.76381620  0.00810863  0.61786155    -0.16200
C1526       C  0.76633197  0.49769463  0.63699125    -0.31400
H1527       H  0.71406635  0.49694745  0.61364639     0.12800
H1528       H  0.71423681  0.99227858  0.61834415     0.13400
C1529       C  0.48469380  0.49620145  0.88057980    -0.16200
C1530       C  0.51676253  0.00145255  0.86907426    -0.31400
H1531       H  0.96304565  0.48533357  0.86067666     0.12800
H1532       H  0.54222413  0.00258646  0.88709389     0.13400
C1533       C  0.51540687  0.01099968  0.61935769    -0.16200
C1534       C  0.48554097  0.49162575  0.62955751    -0.31400
H1535       H  0.53560715  0.50726913  0.63038698     0.12800
H1536       H  0.03889617  0.00219570  0.63386881     0.13400
C1537       C  0.79118226  0.10090596  0.77883332    -0.13100
C1538       C  0.75916172  0.08464943  0.76976791     0.09000
C1539       C  0.73000240  0.09865300  0.76790486    -0.13100
C1540       C  0.73271510  0.12829678  0.77313100    -0.13100
C1541       C  0.76464176  0.14445661  0.78045876     0.09000
C1542       C  0.79389672  0.13053546  0.78423026    -0.13100
H1543       H  0.81420871  0.09073840  0.78099920     0.13000
H1544       H  0.70505911  0.08672689  0.76155701     0.13800
H1545       H  0.70970342  0.13852781  0.77043152     0.13000
H1546       H  0.81878332  0.14245937  0.78989274     0.13000
C1547       C  0.80905284  0.38305848  0.78580873    -0.13100
C1548       C  0.78268090  0.36052298  0.77291042     0.09000
C1549       C  0.75142366  0.36581473  0.75056581    -0.13100
C1550       C  0.74648490  0.39296725  0.74187503    -0.13100
C1551       C  0.77276844  0.41553328  0.75492023     0.09000
C1552       C  0.80421286  0.41016206  0.77676518    -0.13100
H1553       H  0.83344790  0.37978156  0.80293431     0.13000
H1554       H  0.73046863  0.34900594  0.74014804     0.13000
H1555       H  0.72191665  0.39635037  0.72529455     0.13000
H1556       H  0.82496335  0.42710507  0.78769969     0.13000
C1557       C  0.70215635  0.09173697  0.47880034    -0.13100
C1558       C  0.73483874  0.08577865  0.49604153     0.09000
C1559       C  0.76165925  0.10799150  0.50586474    -0.13100
C1560       C  0.75593554  0.13541242  0.49848192    -0.13100
C1561       C  0.72335303  0.14119279  0.48044954     0.09000
C1562       C  0.69653837  0.11897705  0.47089040    -0.13100
H1563       H  0.69391426  0.08400222  0.98207198     0.13000
H1564       H  0.78713931  0.10412698  0.51898685     0.13000
H1565       H  0.77723305  0.15195910  0.50616499     0.13000
H1566       H  0.69357612  0.13382907  0.97524047     0.13000
C1567       C  0.76344761  0.40264215  0.48322893    -0.13100
C1568       C  0.76661062  0.42271235  0.00697637     0.09000
C1569       C  0.74046176  0.40086989  0.98815878    -0.13100
C1570       C  0.74289701  0.37287978  0.99406955    -0.13100
C1571       C  0.77154175  0.36574325  0.01912398     0.09000
C1572       C  0.76196339  0.37309344  0.47732600    -0.13100
H1573       H  0.78794495  0.41520672  0.49472020     0.13000
H1574       H  0.71781652  0.40540936  0.96884265     0.13000
H1575       H  0.72210304  0.35677728  0.97887834     0.13000
H1576       H  0.78544454  0.36379287  0.48467085     0.13000
C1577       C  0.78783679  0.26025517  0.89265835    -0.13100
C1578       C  0.76082658  0.26226678  0.90084041    -0.14600
C1579       C  0.74733756  0.25204525  0.63845903    -0.13100
C1580       C  0.75529851  0.25385681  0.60866498    -0.14600
C1581       C  0.54831349  0.13176227  0.79300550    -0.13100
C1582       C  0.01883706  0.14577413  0.78122429     0.09000
C1583       C  0.98809743  0.12854058  0.76309101    -0.13100
C1584       C  0.98658137  0.09894428  0.75728769    -0.13100
C1585       C  0.01578297  0.08586396  0.76937709     0.09000
C1586       C  0.54550712  0.10199748  0.78648325    -0.13100
H1587       H  0.57328203  0.14377691  0.80241942     0.13000
H1588       H  0.96514649  0.13791069  0.75290215     0.13000
H1589       H  0.96258109  0.08631750  0.74299502     0.13000
H1590       H  0.56850558  0.09178214  0.79152289     0.13000
C1591       C  0.00522651  0.36746599  0.74850551    -0.13100
C1592       C  0.52864913  0.36105652  0.77213654     0.09000
C1593       C  0.55412410  0.38435821  0.78393004    -0.13100
C1594       C  0.54760153  0.41118652  0.77491140    -0.13100
C1595       C  0.51526629  0.41565424  0.75439780     0.09000
C1596       C  0.00086000  0.39499710  0.74104406    -0.13100
H1597       H  0.98411300  0.35087149  0.73728496     0.13000
H1598       H  0.57921053  0.38187952  0.80012725     0.13000
H1599       H  0.56778567  0.42867309  0.78489120     0.13000
H1600       H  0.97652493  0.39884494  0.72440770     0.13000
C1601       C  0.89119135  0.25615534  0.78029525    -0.13100
C1602       C  0.91789854  0.25362573  0.77031572    -0.14600
C1603       C  0.66700704  0.25395644  0.76975462    -0.13100
C1604       C  0.64116957  0.25764585  0.78101134    -0.14600
C1605       C  0.50329213  0.13523739  0.49493516    -0.13100
C1606       C  0.96658587  0.13907897  0.48085464     0.09000
C1607       C  0.93847768  0.11791901  0.47063963    -0.13100
C1608       C  0.94219069  0.09011171  0.47760325    -0.13100
C1609       C  0.97416128  0.08268642  0.49467962     0.09000
C1610       C  0.50918601  0.10802647  0.50267909    -0.13100
H1611       H  0.52465856  0.15168534  0.50190261     0.13000
H1612       H  0.91362896  0.12274357  0.45680812     0.13000
H1613       H  0.94147869  0.08345955  0.98838175     0.13000
H1614       H  0.53481455  0.10423798  0.51531975     0.13000
C1615       C  0.98160868  0.36938827  0.99689608    -0.13100
C1616       C  0.51513804  0.36366199  0.01515982     0.09000
C1617       C  0.54297522  0.38502385  0.02817392    -0.13100
C1618       C  0.52289678  0.40397293  0.48347982    -0.13100
C1619       C  0.50873718  0.42005334  0.00108414     0.09000
C1620       C  0.97761250  0.39725516  0.99131859    -0.13100
H1621       H  0.95926184  0.35387365  0.98905813     0.13000
H1622       H  0.54398530  0.36448413  0.48408632     0.13000
H1623       H  0.54771518  0.41626135  0.49204980     0.13000
H1624       H  0.95237284  0.40235098  0.97953363     0.13000
C1625       C  0.89597603  0.25022181  0.99767138    -0.13100
C1626       C  0.83550971  0.25116817  0.47905685    -0.14600
C1627       C  0.64934305  0.25519856  0.00448344    -0.13100
C1628       C  0.58528676  0.24682372  0.47949294    -0.14600
C1629       C  0.54306513  0.26814895  0.89769175    -0.13100
C1630       C  0.00798623  0.26413613  0.89795981    -0.14600
C1631       C  0.50787444  0.25042895  0.61169746    -0.13100
C1632       C  0.00156507  0.24988145  0.64055562    -0.14600
O1633       O  0.96455550  0.68370145  0.48445414    -0.80700
O1634       O  0.98958754  0.81394305  0.51010040    -0.65400
O1635       O  0.49593661  0.73842448  0.47228021    -1.12000
C1636       C  0.50774056  0.75340395  0.07111866     1.06200
O1637       O  0.50972345  0.81301166  0.97637044    -0.78600
O1638       O  0.55060964  0.77764536  0.00964618    -0.66200
Ni1639     Ni  0.96307658  0.71016549  0.44780905     1.34900
C1640       C  0.55279499  0.75365440  0.99047779     0.85000
O1641       O  0.97094105  0.77745836  0.44304676    -0.79100
O1642       O  0.96256465  0.73428376  0.40861178    -0.89400
C1643       C  0.51551005  0.83420508  0.51879687     0.84500
O1644       O  0.92584871  0.72652647  0.46518512    -0.67600
O1645       O  0.51435547  0.77902255  0.06668725    -0.86900
C1646       C  0.92420145  0.74817162  0.48989385     0.85400
C1647       C  0.97649870  0.75999511  0.41572685     1.06900
H1648       H  0.96030982  0.76929123  0.01360078     0.38700
O1649       O  0.97712950  0.76661319  0.99848672    -1.09500
O1650       O  0.52802362  0.73400577  0.97944756    -0.66200
Ni1651     Ni  0.48327881  0.72879127  0.99003332     1.26300
O1652       O  0.94925323  0.76697120  0.50567625    -0.66400
O1653       O  0.50155032  0.73167037  0.04426951    -0.78700
C1654       C  0.96344099  0.66771250  0.96855547     0.84700
O1655       O  0.48864243  0.68932429  0.98360655    -0.65900
Ni1656     Ni  0.51251585  0.79552204  0.02122361     1.27400
Ni1657     Ni  0.99297371  0.77489869  0.49456088     1.26100
H1658       H  0.51311149  0.73789054  0.45751184     0.39300
O1659       O  0.99035832  0.68723659  0.27548475    -0.80700
O1660       O  0.01051620  0.81180087  0.26272260    -0.65400
O1661       O  0.51800499  0.72887844  0.24948223    -1.12000
C1662       C  0.55850976  0.75435127  0.37683466     1.06200
O1663       O  0.55516411  0.82448908  0.29911036    -0.78600
O1664       O  0.59701040  0.78174093  0.30270901    -0.66200
Ni1665     Ni  0.98591728  0.70488773  0.23039364     1.34900
C1666       C  0.60261497  0.75613125  0.29277113     0.85000
O1667       O  0.99940415  0.76798407  0.20339278    -0.79100
O1668       O  0.98254228  0.72072122  0.18400040    -0.89400
C1669       C  0.52789948  0.82782214  0.27529562     0.84500
O1670       O  0.94838190  0.72277241  0.24387753    -0.67600
O1671       O  0.58015360  0.77234228  0.37009837    -0.86900
C1672       C  0.94569932  0.74774422  0.25974870     0.85400
C1673       C  0.99148515  0.74544092  0.17775881     1.06900
H1674       H  0.01588479  0.77717873  0.32530772     0.38700
O1675       O  0.03404894  0.77419582  0.31232544    -1.09500
O1676       O  0.58249350  0.73441192  0.29437913    -0.66200
Ni1677     Ni  0.53621515  0.72885881  0.30262945     1.26300
O1678       O  0.96981265  0.76793576  0.26705193    -0.66400
O1679       O  0.55382962  0.72989753  0.35678185    -0.78700
C1680       C  0.01796329  0.67732739  0.28800014     0.84700
O1681       O  0.53763457  0.68844867  0.29453276    -0.65900
Ni1682     Ni  0.56685026  0.79689938  0.33326580     1.27400
Ni1683     Ni  0.01550930  0.77220833  0.25829868     1.26100
H1684       H  0.53590152  0.72637401  0.23588631     0.39300
O1685       O  0.71497196  0.68453922  0.47324191    -0.80700
O1686       O  0.73944253  0.81619593  0.50767020    -0.65400
O1687       O  0.74939414  0.73855675  0.47466302    -1.12000
C1688       C  0.75613507  0.75185077  0.07420281     1.06200
O1689       O  0.76028762  0.81619191  0.98423277    -0.78600
O1690       O  0.80041511  0.77854846  0.01240517    -0.66200
Ni1691     Ni  0.71295106  0.71330934  0.43978357     1.34900
C1692       C  0.80255709  0.75431963  0.99380386     0.85000
O1693       O  0.72172402  0.78178285  0.43923836    -0.79100
O1694       O  0.71097989  0.73948934  0.40302670    -0.89400
C1695       C  0.76552001  0.83411782  0.52239620     0.84500
O1696       O  0.67585965  0.72806167  0.45934786    -0.67600
O1697       O  0.76504009  0.77734713  0.07080553    -0.86900
C1698       C  0.67379648  0.74959996  0.48404227     0.85400
C1699       C  0.72693476  0.76448085  0.41163265     1.06900
H1700       H  0.70820179  0.77086056  0.01342315     0.38700
O1701       O  0.72580332  0.76864246  0.99932241    -1.09500
O1702       O  0.77796699  0.73448580  0.98408287    -0.66200
Ni1703     Ni  0.73224866  0.72964619  0.99227957     1.26300
O1704       O  0.69844142  0.76882970  0.49971396    -0.66400
O1705       O  0.74803897  0.73069027  0.04651579    -0.78700
C1706       C  0.71535899  0.66946608  0.96526237     0.84700
O1707       O  0.73690185  0.69011979  0.98439530    -0.65900
Ni1708     Ni  0.76292167  0.79592292  0.02681628     1.27400
Ni1709     Ni  0.74273704  0.77735252  0.49029617     1.26100
H1710       H  0.76785980  0.73863167  0.46171759     0.39300
O1711       O  0.74029164  0.68625875  0.27731636    -0.80700
O1712       O  0.75618010  0.81007264  0.26158680    -0.65400
O1713       O  0.77100566  0.73204641  0.25470110    -1.12000
C1714       C  0.81569717  0.76112791  0.38095084     1.06200
O1715       O  0.80746835  0.82808216  0.29811084    -0.78600
O1716       O  0.85108518  0.78697584  0.30459375    -0.66200
Ni1717     Ni  0.73496495  0.70275473  0.23121420     1.34900
C1718       C  0.85648813  0.76137285  0.29431505     0.85000
O1719       O  0.74396702  0.76550778  0.20282669    -0.79100
O1720       O  0.73078849  0.71776663  0.18416480    -0.89400
C1721       C  0.77919888  0.83092456  0.27580934     0.84500
O1722       O  0.69671314  0.71999454  0.24379818    -0.67600
O1723       O  0.83590361  0.77995424  0.37359463    -0.86900
C1724       C  0.69348030  0.74462279  0.26035586     0.85400
C1725       C  0.73745376  0.74279678  0.17749198     1.06900
H1726       H  0.76545508  0.77657533  0.32475419     0.38700
O1727       O  0.78308733  0.77339600  0.31096820    -1.09500
O1728       O  0.83665701  0.73969865  0.29632129    -0.66200
Ni1729     Ni  0.79184053  0.73368735  0.30768130     1.26300
O1730       O  0.71733683  0.76516361  0.26836936    -0.66400
O1731       O  0.81249788  0.73654120  0.36152369    -0.78700
C1732       C  0.76808429  0.67655264  0.28956028     0.84700
O1733       O  0.79543717  0.69357093  0.30095025    -0.65900
Ni1734     Ni  0.82062470  0.80241718  0.33455055     1.27400
Ni1735     Ni  0.76232137  0.77053606  0.25741762     1.26100
H1736       H  0.78813798  0.72943859  0.24001556     0.39300
O1737       O  0.52530476  0.54609722  0.50817503    -0.74200
O1738       O  0.53200566  0.97023513  0.50558370    -0.74200
O1739       O  0.51954613  0.00408801  0.44948548    -0.74300
O1740       O  0.53028361  0.00324752  0.05982328    -0.74300
O1741       O  0.96407735  0.49883346  0.04350772    -0.74300
O1742       O  0.96193187  0.49773682  0.43386472    -0.74300
O1743       O  0.96384137  0.95835374  0.98681318    -0.74200
O1744       O  0.95655376  0.53357992  0.98838813    -0.74300
Ni1745     Ni  0.52785377  0.01023794  0.50540490     1.25400
Ni1746     Ni  0.96145228  0.49391564  0.98838370     1.25400
C1747       C  0.48710142  0.55485359  0.99788956     0.88000
C1748       C  0.50595991  0.95228946  0.50289872     0.87900
C1749       C  0.48954061  0.99764079  0.42764055     0.87900
C1750       C  0.50225065  0.50664471  0.07120789     0.88100
O1751       O  0.53161075  0.96123289  0.25201763    -0.74200
O1752       O  0.52679874  0.53907991  0.25875767    -0.74200
O1753       O  0.53020909  0.00425266  0.30968875    -0.74300
O1754       O  0.51996625  0.99731179  0.19848893    -0.74300
O1755       O  0.98917574  0.49937248  0.19101298    -0.74300
O1756       O  0.98831986  0.49843344  0.29922622    -0.74300
O1757       O  0.98919860  0.53916427  0.25387257    -0.74200
O1758       O  0.97903917  0.95356358  0.24574844    -0.74300
Ni1759     Ni  0.52726526  0.00104936  0.25452275     1.25400
Ni1760     Ni  0.98676815  0.49847851  0.24456182     1.25400
C1761       C  0.50606861  0.94267319  0.24834402     0.88000
C1762       C  0.49931780  0.55031962  0.25846876     0.87900
C1763       C  0.50556209  0.49846104  0.32038040     0.87900
C1764       C  0.49010262  0.99133646  0.17590357     0.88100
O1765       O  0.71708188  0.50002284  0.03921096    -0.74200
O1766       O  0.70945668  0.49886515  0.43302631    -0.74200
O1767       O  0.71628533  0.96068957  0.98591551    -0.74300
O1768       O  0.71511832  0.53564082  0.98504256    -0.74300
O1769       O  0.76887855  0.54394245  0.50792984    -0.74300
O1770       O  0.78273810  0.96906551  0.50361766    -0.74300
O1771       O  0.77161400  0.00451924  0.44935476    -0.74200
O1772       O  0.77948759  0.00495156  0.05899930    -0.74300
Ni1773     Ni  0.72199852  0.49663360  0.98591175     1.25400
Ni1774     Ni  0.77904508  0.00927061  0.50517485     1.25400
C1775       C  0.74264042  0.50694691  0.06855743     0.88000
C1776       C  0.74175997  0.99855462  0.42700269     0.87900
C1777       C  0.75653132  0.95099576  0.49963886     0.87900
C1778       C  0.73979702  0.55565994  0.99531235     0.88100
O1779       O  0.73394722  0.49720641  0.29714843    -0.74200
O1780       O  0.73427039  0.49939977  0.18923886    -0.74200
O1781       O  0.72645368  0.95336072  0.24449077    -0.74300
O1782       O  0.73585750  0.53874750  0.25338533    -0.74300
O1783       O  0.79237444  0.54277176  0.26824875    -0.74300
O1784       O  0.78210240  0.96387212  0.25188977    -0.74300
O1785       O  0.77042800  0.99969297  0.19812711    -0.74200
O1786       O  0.78215070  0.00733396  0.30952543    -0.74300
Ni1787     Ni  0.73215177  0.49793532  0.24271967     1.25400
Ni1788     Ni  0.77843317  0.00378129  0.25421258     1.25400
C1789       C  0.76226857  0.49924775  0.32238596     0.88000
C1790       C  0.74036807  0.99387722  0.17599538     0.87900
C1791       C  0.75641165  0.94561515  0.24893233     0.87900
C1792       C  0.76469081  0.55418399  0.26455074     0.88100
C1793       C  0.73654954  0.99698448  0.38410928    -0.16200
C1794       C  0.76336860  0.49938085  0.36437707    -0.31400
H1795       H  0.71085778  0.49872314  0.36026796     0.12800
H1796       H  0.78694487  0.01162600  0.38446764     0.13400
C1797       C  0.73816282  0.50536406  0.10874913    -0.16200
C1798       C  0.73421288  0.99354371  0.13315543    -0.31400
H1799       H  0.78476759  0.00613030  0.13265883     0.12800
H1800       H  0.79022015  0.50673160  0.13366111     0.13400
C1801       C  0.48397225  0.99505510  0.38444575    -0.16200
C1802       C  0.51068167  0.50027596  0.36319787    -0.31400
H1803       H  0.96197976  0.98675343  0.36460867     0.12800
H1804       H  0.53655748  0.50161012  0.38023044     0.13400
C1805       C  0.50763123  0.50658904  0.11393171    -0.16200
C1806       C  0.48437256  0.99129387  0.13314033    -0.31400
H1807       H  0.53481492  0.00508031  0.13354743     0.12800
H1808       H  0.04400795  0.50550530  0.13336918     0.13400
C1809       C  0.79716283  0.60309648  0.28139354    -0.13100
C1810       C  0.76607720  0.58555922  0.27340530     0.09000
C1811       C  0.73622773  0.59831042  0.27381110    -0.13100
C1812       C  0.73723989  0.62788925  0.28077145    -0.13100
C1813       C  0.76812585  0.64545483  0.28757399     0.09000
C1814       C  0.79817853  0.63277139  0.28844680    -0.13100
H1815       H  0.82064853  0.59391499  0.28141150     0.13000
H1816       H  0.71194375  0.58544256  0.26823025     0.13800
H1817       H  0.71363407  0.63702718  0.27999942     0.13000
H1818       H  0.82228906  0.64575564  0.29323426     0.13000
C1819       C  0.80060294  0.88097414  0.27182962    -0.13100
C1820       C  0.77321950  0.85966043  0.26619488     0.09000
C1821       C  0.74012492  0.86650701  0.25280552    -0.13100
C1822       C  0.73454851  0.89418136  0.24638533    -0.13100
C1823       C  0.76196346  0.91558301  0.25256858     0.09000
C1824       C  0.79507736  0.90844915  0.26488298    -0.13100
H1825       H  0.82642214  0.87648633  0.28195125     0.13000
H1826       H  0.71842907  0.85066579  0.24833095     0.13000
H1827       H  0.70872687  0.89891115  0.23709787     0.13000
H1828       H  0.81684662  0.92434170  0.27018276     0.13000
C1829       C  0.70360161  0.58917776  0.96229765    -0.13100
C1830       C  0.73309587  0.58494321  0.98893820     0.09000
C1831       C  0.75653265  0.60871649  0.00770726    -0.13100
C1832       C  0.75059555  0.63601725  0.00015670    -0.13100
C1833       C  0.72123886  0.64028252  0.97324147     0.09000
C1834       C  0.69782616  0.61643760  0.95441018    -0.13100
H1835       H  0.68675663  0.58499174  0.48409303     0.13000
H1836       H  0.77949022  0.60622477  0.02828376     0.13000
H1837       H  0.76924045  0.65381350  0.01533435     0.13000
H1838       H  0.68691419  0.63506551  0.47812694     0.13000
C1839       C  0.77043330  0.90384019  0.98561823    -0.13100
C1840       C  0.75998602  0.92062537  0.50223623     0.09000
C1841       C  0.73077625  0.90072022  0.49273035    -0.13100
C1842       C  0.73280061  0.87276997  0.49902558    -0.13100
C1843       C  0.76407885  0.86387369  0.51528455     0.09000
C1844       C  0.76778946  0.87424099  0.98141987    -0.13100
H1845       H  0.79537841  0.91589667  0.99495494     0.13000
H1846       H  0.70605999  0.90686389  0.48100500     0.13000
H1847       H  0.70961176  0.85823582  0.49173817     0.13000
H1848       H  0.79089144  0.86426759  0.98765535     0.13000
C1849       C  0.78661182  0.76865363  0.39483155    -0.13100
C1850       C  0.75881867  0.76894356  0.40136308    -0.14600
C1851       C  0.74215353  0.74515859  0.14004685    -0.13100
C1852       C  0.75079434  0.74738596  0.11069579    -0.14600
C1853       C  0.53598831  0.62772721  0.28783312    -0.13100
C1854       C  0.01803862  0.64620439  0.28543456     0.09000
C1855       C  0.98732589  0.62811353  0.27224773    -0.13100
C1856       C  0.98722864  0.59861712  0.26587887    -0.13100
C1857       C  0.01784735  0.58647380  0.27245472     0.09000
C1858       C  0.53335859  0.59806190  0.28101895    -0.13100
H1859       H  0.56094053  0.63977752  0.29700866     0.13000
H1860       H  0.96328252  0.63674423  0.26610813     0.13000
H1861       H  0.96312295  0.58534233  0.25528079     0.13000
H1862       H  0.55648159  0.58799905  0.28575568     0.13000
C1863       C  0.99505134  0.86707755  0.25110710    -0.13100
C1864       C  0.52270047  0.85680406  0.26599452     0.09000
C1865       C  0.54936270  0.87918943  0.27797682    -0.13100
C1866       C  0.54414533  0.90668561  0.27081905    -0.13100
C1867       C  0.51198470  0.91274171  0.25198810     0.09000
C1868       C  0.98922796  0.89455383  0.24427447    -0.13100
H1869       H  0.97383889  0.85043867  0.24288237     0.13000
H1870       H  0.57428614  0.87555315  0.29330705     0.13000
H1871       H  0.56514806  0.92345737  0.28121926     0.13000
H1872       H  0.96376509  0.89834495  0.23096798     0.13000
C1873       C  0.88729586  0.75676421  0.28051803    -0.13100
C1874       C  0.91377104  0.75314687  0.27053979    -0.14600
C1875       C  0.66109669  0.74908386  0.27082388    -0.13100
C1876       C  0.63404570  0.75178891  0.27998672    -0.14600
C1877       C  0.50382226  0.63337255  0.99249031    -0.13100
C1878       C  0.96807222  0.63846482  0.97656002     0.09000
C1879       C  0.93997203  0.61804967  0.97203724    -0.13100
C1880       C  0.94452797  0.59038962  0.97902736    -0.13100
C1881       C  0.97732006  0.58236617  0.99035139     0.09000
C1882       C  0.50907488  0.60596051  0.00000264    -0.13100
H1883       H  0.52566272  0.64910209  0.99713651     0.13000
H1884       H  0.91441171  0.62348070  0.96314314     0.13000
H1885       H  0.93516759  0.58297995  0.48656182     0.13000
H1886       H  0.53481186  0.60128364  0.01010994     0.13000
C1887       C  0.97942316  0.87006565  0.50393841    -0.13100
C1888       C  0.51389755  0.86451554  0.51480510     0.09000
C1889       C  0.54347323  0.88366140  0.52071747    -0.13100
C1890       C  0.51998299  0.90168771  0.99100944    -0.13100
C1891       C  0.50937651  0.92201989  0.50601002     0.09000
C1892       C  0.97525376  0.89771636  0.49731825    -0.13100
H1893       H  0.95694805  0.85491573  0.49863277     0.13000
H1894       H  0.53970119  0.86199601  0.99468309     0.13000
H1895       H  0.54441157  0.91365304  0.00520915     0.13000
H1896       H  0.94975965  0.90297576  0.48734876     0.13000
C1897       C  0.89227400  0.75177404  0.50070154    -0.13100
C1898       C  0.83435168  0.74929294  0.98264758    -0.14600
C1899       C  0.64180135  0.75264747  0.49500248    -0.13100
C1900       C  0.58488774  0.74877617  0.98030916    -0.14600
C1901       C  0.52987992  0.76311458  0.39094611    -0.13100
C1902       C  0.00703738  0.76601564  0.40313638    -0.14600
C1903       C  0.50267547  0.74912383  0.10761652    -0.13100
C1904       C  0.99697801  0.74725769  0.14039035    -0.14600
O1905       O  0.93580023  0.67195811  0.94629625    -0.80700
O1906       O  0.95494083  0.80798380  0.95664483    -0.65400
O1907       O  0.46321615  0.72782848  0.93675877    -1.12000
C1908       C  0.53979864  0.74748609  0.59994233     1.06200
O1909       O  0.54359743  0.82598789  0.53469847    -0.78600
O1910       O  0.58404720  0.78293545  0.54157087    -0.66200
Ni1911     Ni  0.92424667  0.70018506  0.91322985     1.34900
C1912       C  0.58518798  0.75972588  0.51948037     0.85000
O1913       O  0.93592670  0.76797224  0.89304977    -0.79100
O1914       O  0.91040371  0.72528907  0.87724798    -0.89400
C1915       C  0.48311953  0.82428366  0.96417946     0.84500
O1916       O  0.89484771  0.71516844  0.94489852    -0.67600
O1917       O  0.55862698  0.77087984  0.60423700    -0.86900
C1918       C  0.89085537  0.74074062  0.95763167     0.85400
C1919       C  0.93162319  0.74409880  0.87157977     1.06900
H1920       H  0.99651510  0.77136044  0.55988724     0.38700
O1921       O  0.01375349  0.77006716  0.54520531    -1.09500
O1922       O  0.56121004  0.73932634  0.50957048    -0.66200
Ni1923     Ni  0.51764234  0.73220594  0.52191207     1.26300
O1924       O  0.91166669  0.76227958  0.95745585    -0.66400
O1925       O  0.54033463  0.72782247  0.57255189    -0.78700
C1926       C  0.99130906  0.67422324  0.50189630     0.84700
O1927       O  0.51903055  0.69298013  0.50434684    -0.65900
Ni1928     Ni  0.55061859  0.79721865  0.56790417     1.27400
Ni1929     Ni  0.95649593  0.76776532  0.94623961     1.26100
H1930       H  0.48062232  0.72455584  0.92268004     0.39300
O1931       O  0.95458929  0.67532534  0.71491386    -0.80700
O1932       O  0.98025065  0.81123575  0.74861313    -0.65400
O1933       O  0.48194542  0.72960605  0.70389024    -1.12000
C1934       C  0.51594515  0.73620211  0.83327817     1.06200
O1935       O  0.53030301  0.81595095  0.77142017    -0.78600
O1936       O  0.56821014  0.77195449  0.78634246    -0.66200
Ni1937     Ni  0.94546196  0.70676935  0.68613053     1.34900
C1938       C  0.57044835  0.75028067  0.76203400     0.85000
O1939       O  0.96228310  0.77759518  0.67958914    -0.79100
O1940       O  0.93495812  0.73565300  0.65451111    -0.89400
C1941       C  0.50388983  0.82546127  0.75336062     0.84500
O1942       O  0.91516091  0.71986885  0.71783380    -0.67600
O1943       O  0.53202340  0.76115397  0.84169013    -0.86900
C1944       C  0.91229414  0.74471564  0.73461110     0.85400
C1945       C  0.95690763  0.75590298  0.65351536     1.06900
H1946       H  0.98052918  0.76504173  0.79455102     0.38700
O1947       O  0.99885532  0.76471969  0.78138622    -1.09500
O1948       O  0.54571198  0.73112537  0.74598198    -0.66200
Ni1949     Ni  0.50078474  0.72310109  0.75441060     1.26300
O1950       O  0.93464379  0.76608433  0.73922869    -0.66400
O1951       O  0.52078973  0.71861294  0.80572722    -0.78700
C1952       C  0.98258408  0.66839717  0.73355161     0.84700
O1953       O  0.50359694  0.68395620  0.73750191    -0.65900
Ni1954     Ni  0.53108737  0.78721466  0.80493447     1.27400
Ni1955     Ni  0.98038690  0.77176666  0.73109968     1.26100
H1956       H  0.49954942  0.72823136  0.68972407     0.39300
O1957       O  0.68909131  0.67296096  0.94004548    -0.80700
O1958       O  0.70534281  0.81095862  0.95847198    -0.65400
O1959       O  0.71436347  0.73054303  0.93892102    -1.12000
C1960       C  0.78865327  0.74636151  0.60344590     1.06200
O1961       O  0.79285470  0.82693695  0.54200219    -0.78600
O1962       O  0.83261011  0.78343464  0.54259346    -0.66200
Ni1963     Ni  0.67605471  0.70338284  0.91121668     1.34900
C1964       C  0.83539345  0.75910826  0.52435915     0.85000
O1965       O  0.68874526  0.77237776  0.89366025    -0.79100
O1966       O  0.66109850  0.73066218  0.87936829    -0.89400
C1967       C  0.73348229  0.82687896  0.97080748     0.84500
O1968       O  0.64801468  0.71637531  0.94566597    -0.67600
O1969       O  0.80996051  0.76762538  0.60442903    -0.86900
C1970       C  0.64222947  0.74174718  0.95692554     0.85400
C1971       C  0.68260771  0.74846915  0.87226231     1.06900
H1972       H  0.74501799  0.77175600  0.55511160     0.38700
O1973       O  0.76238162  0.77086420  0.54054984    -1.09500
O1974       O  0.81286377  0.73773730  0.51784855    -0.66200
Ni1975     Ni  0.76715487  0.73125438  0.52499307     1.26300
O1976       O  0.66150594  0.76396554  0.95548530    -0.66400
O1977       O  0.78447436  0.72526847  0.57653121    -0.78700
C1978       C  0.74177533  0.67527740  0.49085230     0.84700
O1979       O  0.76859957  0.69203417  0.50700122    -0.65900
Ni1980     Ni  0.80055248  0.79609737  0.57182968     1.27400
Ni1981     Ni  0.70725012  0.77080402  0.94699731     1.26100
H1982       H  0.73258103  0.72796176  0.92593446     0.39300
O1983       O  0.70610918  0.67432764  0.71523691    -0.80700
O1984       O  0.72678455  0.80953803  0.74800812    -0.65400
O1985       O  0.73524647  0.73076663  0.71629060    -1.12000
C1986       C  0.77174186  0.73904240  0.84459463     1.06200
O1987       O  0.77998947  0.81898280  0.78312198    -0.78600
O1988       O  0.82077100  0.77652718  0.79393386    -0.66200
Ni1989     Ni  0.69759671  0.70480728  0.68508029     1.34900
C1990       C  0.82347518  0.75436125  0.77066420     0.85000
O1991       O  0.71156333  0.77551920  0.67921286    -0.79100
O1992       O  0.68730993  0.73279512  0.65203536    -0.89400
C1993       C  0.75310971  0.82700055  0.76373539     0.84500
O1994       O  0.66498720  0.71698836  0.71375746    -0.67600
O1995       O  0.78955782  0.76316900  0.85214801    -0.86900
C1996       C  0.66139111  0.74127257  0.73142888     0.85400
C1997       C  0.70825440  0.75421828  0.65282257     1.06900
H1998       H  0.72933468  0.76399129  0.79436276     0.38700
O1999       O  0.74787386  0.76378732  0.78160787    -1.09500
O2000       O  0.79971396  0.73391059  0.75730922    -0.66200
Ni2001     Ni  0.75529342  0.72478485  0.76670748     1.26300
O2002       O  0.68360756  0.76296071  0.73819566    -0.66400
O2003       O  0.77642575  0.72066032  0.81793785    -0.78700
C2004       C  0.73394906  0.66740143  0.73397001     0.84700
O2005       O  0.75937479  0.68585049  0.74980050    -0.65900
Ni2006     Ni  0.78424723  0.78978408  0.81591494     1.27400
Ni2007     Ni  0.72938043  0.77029420  0.73100689     1.26100
H2008       H  0.75269886  0.73006326  0.70186559     0.39300
O2009       O  0.51723838  0.54754153  0.00316480    -0.74200
O2010       O  0.52321858  0.96207488  0.99653613    -0.74200
O2011       O  0.52232071  0.00253280  0.95082598    -0.74300
O2012       O  0.53294581  0.01556682  0.56087329    -0.74300
O2013       O  0.96031963  0.49544898  0.54072577    -0.74300
O2014       O  0.96242984  0.48964938  0.93424617    -0.74300
O2015       O  0.96791286  0.95510196  0.49106134    -0.74200
O2016       O  0.96119768  0.53730608  0.49652091    -0.74300
Ni2017     Ni  0.52789405  0.00309909  0.00560349     1.25400
Ni2018     Ni  0.95918010  0.49659855  0.48675995     1.25400
C2019       C  0.49718914  0.55696511  0.50585178     0.88000
C2020       C  0.49405038  0.94710161  0.98793363     0.87900
C2021       C  0.49297811  0.00100971  0.92799066     0.87900
C2022       C  0.50440310  0.50237122  0.57030361     0.88100
O2023       O  0.53311555  0.96121622  0.74911971    -0.74200
O2024       O  0.51856177  0.54182444  0.75139761    -0.74200
O2025       O  0.53969134  0.00198898  0.81254797    -0.74300
O2026       O  0.52914576  0.00213848  0.70185704    -0.74300
O2027       O  0.98369619  0.48994140  0.68782550    -0.74300
O2028       O  0.98298289  0.49511415  0.79724803    -0.74300
O2029       O  0.97489534  0.53166245  0.74377383    -0.74200
O2030       O  0.98274628  0.95754605  0.73909156    -0.74300
Ni2031     Ni  0.53690175  0.00192400  0.75763550     1.25400
Ni2032     Ni  0.98116597  0.49203138  0.74186433     1.25400
C2033       C  0.50480097  0.94587464  0.74467192     0.88000
C2034       C  0.48840508  0.54895314  0.74525311     0.87900
C2035       C  0.50442907  0.50247564  0.82015958     0.87900
C2036       C  0.49891908  0.00041478  0.68030848     0.88100
O2037       O  0.71172566  0.49955559  0.54149687    -0.74200
O2038       O  0.73122595  0.49427527  0.93456546    -0.74200
O2039       O  0.72684731  0.95901925  0.49485737    -0.74300
O2040       O  0.71240956  0.53995414  0.49462176    -0.74300
O2041       O  0.77007391  0.55032620  0.00952062    -0.74300
O2042       O  0.77257350  0.96427361  0.99514181    -0.74300
O2043       O  0.77053468  0.00511824  0.94998625    -0.74200
O2044       O  0.78295768  0.01324017  0.56042707    -0.74300
Ni2045     Ni  0.70850068  0.49927080  0.48672551     1.25400
Ni2046     Ni  0.77662217  0.00526417  0.00477653     1.25400
C2047       C  0.74009821  0.50074244  0.56636971     0.88000
C2048       C  0.74100012  0.00314650  0.92737662     0.87900
C2049       C  0.74358684  0.94906671  0.98701486     0.87900
C2050       C  0.74107673  0.55534707  0.50195200     0.88100
O2051       O  0.72304387  0.49244145  0.78873695    -0.74200
O2052       O  0.73381016  0.48867370  0.68383922    -0.74200
O2053       O  0.72415475  0.95674086  0.74208973    -0.74300
O2054       O  0.72141403  0.52988284  0.73747527    -0.74300
O2055       O  0.77692606  0.54247027  0.76065266    -0.74300
O2056       O  0.78023644  0.96076069  0.74925817    -0.74300
O2057       O  0.77609390  0.00034356  0.70013226    -0.74200
O2058       O  0.78651351  0.00275095  0.81108092    -0.74300
Ni2059     Ni  0.72681345  0.48998862  0.73566069     1.25400
Ni2060     Ni  0.78362328  0.00137682  0.75601637     1.25400
C2061       C  0.74875670  0.49877194  0.81774483     0.88000
C2062       C  0.74598545  0.99832916  0.67830421     0.87900
C2063       C  0.75201036  0.94542116  0.74536022     0.87900
C2064       C  0.74705703  0.54917190  0.74856644     0.88100
C2065       C  0.73734022  0.00253303  0.88489490    -0.16200
C2066       C  0.74286080  0.49822033  0.85755049    -0.31400
H2067       H  0.79398414  0.50432973  0.88828482     0.12800
H2068       H  0.78961592  0.00496088  0.88575919     0.13400
C2069       C  0.73910033  0.49845378  0.60753225    -0.16200
C2070       C  0.73993088  0.99891751  0.63562456    -0.31400
H2071       H  0.78945295  0.01504849  0.63513030     0.12800
H2072       H  0.79162792  0.49975734  0.63168067     0.13400
C2073       C  0.48981820  0.00061634  0.88565273    -0.16200
C2074       C  0.50948644  0.50415590  0.86319547    -0.31400
H2075       H  0.95939896  0.99649233  0.86386197     0.12800
H2076       H  0.53480314  0.51159563  0.88104656     0.13400
C2077       C  0.51003694  0.50088223  0.61263706    -0.16200
C2078       C  0.49222950  0.00145835  0.63773987    -0.31400
H2079       H  0.54121019  0.01810382  0.63601670     0.12800
H2080       H  0.03873547  0.49862930  0.63124563     0.13400
C2081       C  0.77152735  0.60009500  0.75681028    -0.13100
C2082       C  0.74286003  0.57953818  0.74634093     0.09000
C2083       C  0.71092764  0.58820367  0.73206562    -0.13100
C2084       C  0.70787878  0.61669076  0.72805169    -0.13100
C2085       C  0.73668060  0.63715229  0.73832072     0.09000
C2086       C  0.76847643  0.62845436  0.75295736    -0.13100
H2087       H  0.79658352  0.59424555  0.76764707     0.13000
H2088       H  0.68835016  0.57293050  0.72358934     0.13800
H2089       H  0.68296606  0.62268049  0.71688009     0.13000
H2090       H  0.79122625  0.64353700  0.76106264     0.13000
C2091       C  0.78333047  0.87493287  0.76372282    -0.13100
C2092       C  0.75282534  0.85710642  0.75792692     0.09000
C2093       C  0.72195571  0.86824243  0.74605960    -0.13100
C2094       C  0.72160314  0.89668452  0.74095229    -0.13100
C2095       C  0.75211821  0.91457759  0.74704184     0.09000
C2096       C  0.78299225  0.90324382  0.75810814    -0.13100
H2097       H  0.80752338  0.86698384  0.77255196     0.13000
H2098       H  0.69798077  0.85508491  0.74137534     0.13000
H2099       H  0.69740474  0.90475312  0.73273128     0.13000
H2100       H  0.80700825  0.91644987  0.76337458     0.13000
C2101       C  0.71092318  0.59812436  0.49040394    -0.13100
C2102       C  0.74156081  0.58640435  0.50133247     0.09000
C2103       C  0.77228969  0.60423880  0.50867279    -0.13100
C2104       C  0.77230472  0.63305616  0.50534395    -0.13100
C2105       C  0.74161369  0.64467100  0.49417150     0.09000
C2106       C  0.71095540  0.62682125  0.48667936    -0.13100
H2107       H  0.68518138  0.57127897  0.94691131     0.13000
H2108       H  0.79634267  0.59588814  0.51662707     0.13000
H2109       H  0.79642979  0.64618975  0.51109249     0.13000
H2110       H  0.67502198  0.61879828  0.93349765     0.13000
C2111       C  0.79153119  0.91158089  0.51722823    -0.13100
C2112       C  0.74114177  0.91767607  0.97926004     0.09000
C2113       C  0.70916793  0.90120808  0.96678374    -0.13100
C2114       C  0.70652487  0.87154353  0.96243174    -0.13100
C2115       C  0.73580669  0.85781684  0.97058613     0.09000
C2116       C  0.79354022  0.88350227  0.52384026    -0.13100
H2117       H  0.81449229  0.92639794  0.52492657     0.13000
H2118       H  0.68607660  0.91126320  0.96119276     0.13000
H2119       H  0.68157903  0.85946732  0.95394101     0.13000
H2120       H  0.81810033  0.87722605  0.53587959     0.13000
C2121       C  0.73865094  0.73732955  0.85240718    -0.13100
C2122       C  0.71065915  0.73929942  0.85772005    -0.14600
C2123       C  0.73610270  0.75107034  0.63465427    -0.13100
C2124       C  0.76143726  0.74955035  0.62261660    -0.14600
C2125       C  0.50922662  0.62820845  0.75021414    -0.13100
C2126       C  0.98589296  0.63829093  0.73885378     0.09000
C2127       C  0.95819889  0.61676608  0.72644305    -0.13100
C2128       C  0.96241534  0.58853841  0.73140548    -0.13100
C2129       C  0.99445351  0.58119873  0.74863518     0.09000
C2130       C  0.51140025  0.60032229  0.75685343    -0.13100
H2131       H  0.53115517  0.64384461  0.76269534     0.13000
H2132       H  0.93337557  0.62167404  0.71267557     0.13000
H2133       H  0.94077773  0.57236221  0.72095314     0.13000
H2134       H  0.53496510  0.59534543  0.77391943     0.13000
C2135       C  0.97897604  0.86884122  0.74114669    -0.13100
C2136       C  0.50450203  0.85610524  0.74985708     0.09000
C2137       C  0.53523111  0.87396509  0.75761273    -0.13100
C2138       C  0.53530161  0.90284950  0.75455860    -0.13100
C2139       C  0.50463050  0.91468282  0.74415432     0.09000
C2140       C  0.97965824  0.89736366  0.73635032    -0.13100
H2141       H  0.95478573  0.85559522  0.73283646     0.13000
H2142       H  0.55922883  0.86563358  0.76608981     0.13000
H2143       H  0.55944496  0.91606744  0.76126463     0.13000
H2144       H  0.95602951  0.90532991  0.72477495     0.13000
C2145       C  0.85537723  0.75200576  0.75890505    -0.13100
C2146       C  0.88167108  0.74900457  0.74851761    -0.14600
C2147       C  0.62993073  0.74455074  0.74359773    -0.13100
C2148       C  0.60291849  0.74720447  0.75223158    -0.14600
C2149       C  0.52455445  0.63444810  0.50369738    -0.13100
C2150       C  0.99017927  0.64382817  0.50687145     0.09000
C2151       C  0.95952720  0.62559856  0.49516655    -0.13100
C2152       C  0.95909242  0.59652453  0.49695938    -0.13100
C2153       C  0.98933455  0.58488754  0.51021187     0.09000
C2154       C  0.52604678  0.60594852  0.50806537    -0.13100
H2155       H  0.54795775  0.64758968  0.50531185     0.13000
H2156       H  0.93592952  0.63365602  0.48372820     0.13000
H2157       H  0.92231981  0.57516333  0.97498029     0.13000
H2158       H  0.55046954  0.59786113  0.51260356     0.13000
C2159       C  0.95493505  0.86876523  0.96878338    -0.13100
C2160       C  0.48576458  0.85561010  0.96732321     0.09000
C2161       C  0.51719476  0.87203773  0.98488778    -0.13100
C2162       C  0.54123462  0.91215503  0.51622579    -0.13100
C2163       C  0.49139067  0.91567409  0.97990288     0.09000
C2164       C  0.95707851  0.89845780  0.97441629    -0.13100
H2165       H  0.93037778  0.85650623  0.96421025     0.13000
H2166       H  0.56830194  0.87658874  0.52857712     0.13000
H2167       H  0.56435534  0.92647675  0.52111067     0.13000
H2168       H  0.93397026  0.90836791  0.97359850     0.13000
C2169       C  0.86053297  0.74555634  0.97216479    -0.13100
C2170       C  0.86609087  0.75528319  0.51086314    -0.14600
C2171       C  0.61148777  0.74553392  0.97074337    -0.13100
C2172       C  0.61569564  0.75600723  0.50545856    -0.14600
C2173       C  0.48456754  0.73189490  0.84455701    -0.13100
C2174       C  0.96056155  0.73631688  0.85760011    -0.14600
C2175       C  0.50965471  0.74726409  0.61447809    -0.13100
C2176       C  0.98435483  0.75077830  0.63517005    -0.14600
loop_ 
_geom_bond_atom_site_label_1 
_geom_bond_atom_site_label_2 
_geom_bond_distance 
_geom_bond_site_symmetry_2 
_ccdc_geom_bond_type 
O1           Ni7   1.953       .  S
O1          C294   1.279       .  A
O2          Ni25   1.917       .  S
O2         C1099   1.274       .  A
O3           H26   0.964       .  S
O3        Ni1095   1.927       .  S
O3        Ni1113   1.947       .  S
O3         Ni291   1.899       .  S
C4           O21   1.260       .  A
C4           O13   1.273       .  A
C4          C271   1.439       .  S
O5          Ni24   1.956       .  S
O5          C283   1.282       .  A
O6          Ni24   1.928       .  S
O6            C8   1.275       .  A
Ni7          O10   1.917       .  S
Ni7          O12   1.930       .  S
Ni7        O1091   1.927       .  S
C8           O18   1.277       .  A
C8          C268   1.454       .  S
O9          Ni25   1.907       .  S
O9           C15   1.253       .  A
O10          C15   1.267       .  A
C11        O1090   1.272       .  A
C11         O277   1.271   1_655  A
C11         C256   1.477       .  S
O12          C14   1.278       .  A
O13         Ni24   1.934       .  S
C14          O20   1.285       .  A
C14         C265   1.464       .  S
C15         C270   1.434       .  S
H16          O17   0.965       .  S
O17        Ni297   1.887   1_554  S
O17       Ni1107   1.937       .  S
O17       Ni1112   1.911       .  S
O18         Ni19   1.946       .  S
Ni19         O23   1.898       .  S
Ni19         O21   1.905       .  S
Ni19        O275   1.888   1_554  S
Ni19       O1105   1.930       .  S
O20         Ni25   1.964       .  S
C22         O273   1.283       .  A
C22        O1111   1.273   1_556  A
C22         C246   1.490   1_556  S
O23        C1110   1.269   1_454  A
Ni24       O1105   1.910       .  S
Ni25       O1091   1.955       .  S
Ni25        O289   1.885       .  S
O27         Ni33   1.955       .  S
O27          C48   1.281       .  A
O28         Ni51   1.897       .  S
O28        C1125   1.268       .  A
O29          H52   0.965   1_655  S
O29         Ni45   1.883   1_655  S
O29       Ni1121   1.912       .  S
O29       Ni1139   1.933       .  S
C30          O47   1.259       .  A
C30          O39   1.275       .  A
C30         C269   1.433   1_455  S
O31         Ni50   1.955       .  S
O31          C37   1.283       .  A
O32         Ni50   1.940       .  S
O32          C34   1.276       .  A
Ni33         O36   1.941       .  S
Ni33         O38   1.928       .  S
Ni33       O1117   1.914       .  S
C34          O44   1.273       .  A
C34         C244   1.458       .  S
O35         Ni51   1.897       .  S
O35          C41   1.259       .  A
O36          C41   1.274       .  A
C37        O1116   1.273   1_455  A
C37         C232   1.494       .  S
O38          C40   1.274       .  A
O39         Ni50   1.946       .  S
C40          O46   1.269       .  A
C40         C242   1.442       .  S
C41         C272   1.428       .  S
H42          O43   0.964       .  S
O43         Ni51   1.887       .  S
O43       Ni1133   1.924       .  S
O43       Ni1138   1.911       .  S
O44         Ni45   1.934       .  S
Ni45         O49   1.895       .  S
Ni45         O47   1.894       .  S
Ni45       O1131   1.917       .  S
O46         Ni51   1.920       .  S
C48        O1137   1.272       .  A
C48         C222   1.493       .  S
O49        C1136   1.270   1_455  A
Ni50       O1131   1.913       .  S
Ni51       O1117   1.924       .  S
O53         Ni59   1.946       .  S
O53         C346   1.278       .  A
O54         Ni77   1.917       .  S
O54          C63   1.274       .  A
O55          H78   0.964       .  S
O55         Ni59   1.929       .  S
O55         Ni77   1.953       .  S
O55        Ni343   1.901       .  S
C56          O73   1.260       .  A
C56          O65   1.275       .  A
C56         C220   1.435       .  S
O57         Ni76   1.963       .  S
O57         C335   1.283       .  A
O58         Ni76   1.930       .  S
O58          C60   1.276       .  A
Ni59         O62   1.916       .  S
Ni59         O64   1.924       .  S
C60          O70   1.278       .  A
C60         C266   1.459       .  S
O61         Ni77   1.909       .  S
O61          C67   1.254       .  A
O62          C67   1.265       .  A
C63         O329   1.271       .  A
C63         C211   1.479       .  S
O64          C66   1.276       .  A
O65         Ni76   1.936       .  S
C66          O72   1.284       .  A
C66         C267   1.460       .  S
C67         C218   1.430       .  S
H68          O69   0.965       .  S
O69         Ni71   1.934       .  S
O69         Ni76   1.908       .  S
O69        Ni349   1.884   1_554  S
O70         Ni71   1.950       .  S
Ni71         O75   1.907       .  S
Ni71         O73   1.902       .  S
Ni71        O327   1.887   1_554  S
O72         Ni77   1.961       .  S
C74          O75   1.272   1_556  A
C74         O325   1.282       .  A
C74         C201   1.491       .  S
Ni77        O341   1.888       .  S
O79         Ni85   1.956       .  S
O79         C100   1.282       .  A
O80        Ni103   1.894       .  S
O80          C89   1.268       .  A
O81         H104   0.965       .  S
O81         Ni85   1.912       .  S
O81        Ni103   1.930       .  S
O81         Ni97   1.887       .  S
C82          O99   1.258       .  A
C82          O91   1.273       .  A
C82         C217   1.431       .  S
O83        Ni102   1.951       .  S
O83          C89   1.281       .  A
O84        Ni102   1.931       .  S
O84          C86   1.274       .  A
Ni85         O88   1.935       .  S
Ni85         O90   1.934       .  S
C86          O96   1.269       .  A
C86         C241   1.442       .  S
O87        Ni103   1.901       .  S
O87          C93   1.258       .  A
O88          C93   1.273       .  A
C89         C188   1.483       .  S
O90          C92   1.276       .  A
O91        Ni102   1.942       .  S
C92          O98   1.276       .  A
C92         C243   1.458       .  S
C93         C219   1.437       .  S
H94          O95   0.965       .  S
O95        Ni103   1.887       .  S
O95         Ni97   1.921       .  S
O95        Ni102   1.920       .  S
O96         Ni97   1.920       .  S
Ni97        O101   1.894       .  S
Ni97         O99   1.898       .  S
O98        Ni103   1.942       .  S
C100        O101   1.268       .  A
C100        C181   1.488       .  S
O105       Ni657   1.924       .  S
O105        C387   1.283   1_455  A
O106       Ni113   1.919       .  S
O106        C116   1.282   1_455  A
O107       Ni113   1.948       .  S
O107        C117   1.287   1_455  A
O108       Ni385   1.954       .  S
O108        C662   1.288   1_455  A
O109       Ni114   1.951   1_554  S
O109       C1206   1.288   1_565  A
O110       Ni386   1.944       .  S
O110       C1749   1.287       .  A
O111       Ni658   1.917       .  S
O111       C1476   1.281       .  A
O112       Ni114   1.913   1_544  S
O112       C1203   1.280       .  A
Ni113       O649   1.927       .  S
Ni113       O380   1.948       .  S
Ni113     Ni2018   2.383   1_455  S
Ni114       O382   1.941       .  S
Ni114       O655   1.906       .  S
Ni114     Ni2017   2.384   1_566  S
C115        O377   1.284   1_655  A
C115       O1200   1.280       .  A
C115       C1337   1.484       .  S
C116       O1471   1.281       .  A
C116        C259   1.479       .  S
C117       O1742   1.284       .  A
C117        C169   1.502       .  S
C118        O652   1.282       .  A
C118       O1197   1.289   1_445  A
C118        C173   1.504       .  S
O119       Ni127   1.925       .  S
O119        C129   1.283       .  A
O120       Ni671   1.911       .  S
O120        C130   1.281   1_455  A
O121       Ni127   1.934       .  S
O121        C675   1.284       .  A
O122       Ni127   1.941       .  S
O122        C132   1.285       .  A
O123       Ni128   1.931       .  S
O123       C1764   1.283       .  A
O124       Ni128   1.938       .  S
O124       C1219   1.284       .  A
O125       Ni128   1.939   1_545  S
O125       C1218   1.286       .  A
O126       Ni672   1.931       .  S
O126       C1217   1.285       .  A
Ni127       O664   1.918       .  S
Ni127     Ni1760   2.382   1_455  S
Ni128       O670   1.937       .  S
Ni128     Ni1759   2.383   1_565  S
C129       O1214   1.284   1_455  A
C129        C235   1.491       .  S
C130       O1213   1.285       .  A
C130       C1313   1.492       .  S
C131        O665   1.286       .  A
C131       O1212   1.284   1_445  A
C131        C170   1.503       .  S
C132       O1755   1.287   1_455  A
C132        C174   1.509       .  S
O133       Ni141   1.937   1_554  S
O133        C143   1.284       .  A
O134       Ni413   1.949       .  S
O134        C688   1.288       .  A
O135       Ni685   1.916       .  S
O135        C417   1.281       .  A
O136       Ni141   1.920   1_545  S
O136        C146   1.282   1_556  A
O137       Ni686   1.932       .  S
O137        C418   1.285       .  A
O138       Ni142   1.916       .  S
O138        C145   1.282       .  A
O139       Ni142   1.943       .  S
O139        C144   1.285       .  A
O140       Ni414   1.930       .  S
O140        C687   1.283       .  A
Ni141       O406   1.928       .  S
Ni141       O679   1.914       .  S
Ni141      Ni958   2.384   1_566  S
Ni142       O681   1.925       .  S
Ni142       O412   1.947       .  S
Ni142      Ni957   2.384       .  S
C143        O684   1.286   1_565  A
C143        C165   1.503       .  S
C144        O678   1.283       .  A
C144        C161   1.494       .  S
C145        O407   1.281       .  A
C145        C208   1.480       .  S
C146        O409   1.284       .  A
C146        C198   1.491       .  S
O147       Ni155   1.955       .  S
O147        C157   1.287   1_565  A
O148       Ni155   1.950       .  S
O148        C702   1.287       .  A
O149       Ni699   1.930       .  S
O149        C159   1.285       .  A
O150       Ni155   1.925   1_545  S
O150        C160   1.283       .  A
O151       Ni700   1.917       .  S
O151        C160   1.282       .  A
O152       Ni156   1.904       .  S
O152        C159   1.278       .  A
O153       Ni156   1.951       .  S
O153        C158   1.288       .  A
O154       Ni156   1.945       .  S
O154        C701   1.287       .  A
Ni155       O693   1.934       .  S
Ni155      Ni700   2.383   1_565  S
Ni156       O695   1.896       .  S
Ni156      Ni699   2.384       .  S
C157        O698   1.283       .  A
C157        C162   1.500       .  S
C158        O692   1.282       .  A
C158        C166   1.501       .  S
C159        C191   1.481       .  S
C160        C178   1.485       .  S
C161        C706   1.354       .  D
C161        H707   1.087       .  S
C162        C705   1.356   1_545  D
C162        H708   1.086       .  S
H163        C705   1.086       .  S
H164        C706   1.086       .  S
C165        C710   1.355       .  D
C165        H711   1.086       .  S
C166        C709   1.352       .  D
C166        H712   1.086       .  S
H167        C709   1.086       .  S
H168        C710   1.086       .  S
C169        C714   1.354   1_655  D
C169       H1259   1.086       .  S
C170        C713   1.355   1_445  D
C170        H172   1.086       .  S
H171       C1257   1.086       .  S
C173        C718   1.352   1_445  D
C173        H719   1.086       .  S
C174        C717   1.356   1_455  D
C174       H1808   1.086       .  S
H175        C717   1.086       .  S
H176       C1806   1.086       .  S
C177        C178   1.405       .  A
C177        C182   1.398       .  A
C177        H183   1.083       .  S
C178        C179   1.407       .  A
C179        C180   1.403       .  A
C179        H184   1.083       .  S
C180        C181   1.406       .  A
C180        H185   1.083       .  S
C181        C182   1.409       .  A
C182        H186   1.083       .  S
C187        C188   1.403       .  A
C187        C192   1.397       .  A
C187        H193   1.083       .  S
C188        C189   1.410       .  A
C189        C190   1.399       .  A
C189        H194   1.083       .  S
C190        C191   1.403       .  A
C190        H195   1.083       .  S
C191        C192   1.408       .  A
C192        H196   1.083       .  S
C197        C198   1.409   1_556  A
C197        C202   1.403       .  A
C197        H475   1.083       .  S
C198        C199   1.406       .  A
C199        C200   1.401       .  A
C199        H204   1.083       .  S
C200        C201   1.408   1_554  A
C200        H205   1.083       .  S
C201        C202   1.406       .  A
C202        H478   1.083       .  S
H203        C469   1.083       .  S
H206        C474   1.083       .  S
C207        C212   1.408       .  A
C207        C480   1.408   1_554  A
C207        H213   1.083       .  S
C208        C209   1.407       .  A
C208        C479   1.404       .  A
C209        C210   1.400       .  A
C209        H214   1.083       .  S
C210        C211   1.404       .  A
C210        H215   1.083       .  S
C211        C484   1.407       .  A
C212        C483   1.409       .  A
C212        H216   1.083       .  S
C217        C218   1.203       .  T
C219        C220   1.207       .  T
C221        C226   1.394       .  A
C221       C1310   1.406   1_455  A
C221        H227   1.083       .  S
C222        C223   1.409       .  A
C222       C1309   1.407       .  A
C223        C224   1.407       .  A
C223        H228   1.083       .  S
C224        C225   1.407       .  A
C224        H229   1.083       .  S
C225       C1218   1.489       .  S
C225       C1314   1.406       .  A
C226       C1313   1.405   1_455  A
C226        H230   1.083       .  S
C231        C236   1.401       .  A
C231       C1320   1.410       .  A
C231        H237   1.083       .  S
C232        C233   1.407       .  A
C232       C1319   1.409   1_455  A
C233        C234   1.404       .  A
C233        H238   1.083       .  S
C234        C235   1.409       .  A
C234        H239   1.083       .  S
C235       C1324   1.406   1_455  A
C236       C1323   1.404       .  A
C236        H240   1.083       .  S
C241        C242   1.210       .  T
C243        C244   1.220       .  T
C245        C250   1.400       .  A
C245       C1334   1.409   1_454  A
C245        H251   1.083       .  S
C246        C247   1.405   1_554  A
C246       C1333   1.409       .  A
C247        C248   1.401       .  A
C247        H252   1.083       .  S
C248        C249   1.409   1_556  A
C248        H525   1.083       .  S
C249       C1203   1.489       .  S
C249       C1338   1.405       .  A
C250       C1337   1.404   1_455  A
C250        H254   1.083       .  S
H253        C520   1.083       .  S
C255        C260   1.397       .  A
C255       C1344   1.401       .  A
C255        H261   1.083       .  S
C256        C257   1.407   1_655  A
C256       C1343   1.403       .  A
C257        C530   1.397       .  A
C257        H534   1.083       .  S
C258        C529   1.404       .  A
C258        C531   1.409       .  A
C258        H263   1.083       .  S
C259        C530   1.405   1_655  A
C259       C1348   1.406       .  A
C260       C1347   1.408       .  A
C260        H264   1.083       .  S
H262        C529   1.083       .  S
C265        C538   1.223       .  T
C266        C537   1.220   1_554  T
C267        C540   1.221       .  T
C268        C539   1.217   1_554  T
C269       C1358   1.205       .  T
C270       C1357   1.206       .  T
C271       C1360   1.208   1_455  T
C272       C1359   1.202       .  T
O273       Ni279   1.952       .  S
O274       Ni297   1.902   1_554  S
O274       C1371   1.272       .  A
O275        H298   0.965       .  S
O275      Ni1367   1.919   1_455  S
O275      Ni1385   1.919   1_455  S
C276        O293   1.275       .  A
C276        O285   1.275       .  A
C276        C543   1.416       .  S
O277       Ni296   1.918       .  S
O278       Ni296   1.918       .  S
O278        C280   1.267       .  A
Ni279       O282   1.947       .  S
Ni279       O284   1.941       .  S
Ni279      O1363   1.909       .  S
C280        O290   1.276       .  A
C280        C540   1.461       .  S
O281       Ni297   1.893       .  S
O281        C287   1.259       .  A
O282        C287   1.276       .  A
C283       O1362   1.269   1_455  A
C283        C528   1.487       .  S
O284        C286   1.276       .  A
O285       Ni296   1.910       .  S
C286        O292   1.274   1_556  A
C286        C537   1.459       .  S
C287        C542   1.434       .  S
H288        O289   0.967       .  S
O289      Ni1379   1.895       .  S
O289      Ni1384   1.902       .  S
O290       Ni291   1.954   1_455  S
Ni291       O295   1.913       .  S
Ni291       O293   1.906   1_655  S
Ni291      O1377   1.897       .  S
O292       Ni297   1.936   1_554  S
C294       O1383   1.268       .  A
C294        C518   1.490       .  S
O295       C1382   1.273       .  A
Ni296      O1377   1.899   1_455  S
Ni297      O1363   1.913       .  S
O299       Ni305   1.907       .  S
O299        C320   1.268       .  A
O300       Ni323   1.908       .  S
O300       C1397   1.270       .  A
O301        H324   0.966       .  S
O301      Ni1393   1.895   1_455  S
O301      Ni1411   1.892       .  S
O301       Ni317   1.889       .  S
C302        O319   1.254       .  A
C302        O311   1.266       .  A
C302        C541   1.431       .  S
O303       Ni322   1.945       .  S
O303        C309   1.278       .  A
O304       Ni322   1.928       .  S
O304        C306   1.276       .  A
Ni305       O308   1.904       .  S
Ni305       O310   1.917       .  S
Ni305      O1389   1.894       .  S
C306        O316   1.281       .  A
C306        C516   1.459       .  S
O307       Ni323   1.904       .  S
O307        C313   1.275       .  A
O308        C313   1.275       .  A
C309       O1388   1.271       .  A
C309        C504   1.491       .  S
O310        C312   1.266       .  A
O311       Ni322   1.922       .  S
C312        O318   1.271       .  A
C312        C514   1.456       .  S
C313        C544   1.410       .  S
H314        O315   0.965       .  S
O315       Ni323   1.903       .  S
O315      Ni1405   1.961       .  S
O315      Ni1410   1.923       .  S
O316       Ni317   1.954       .  S
Ni317       O321   1.919       .  S
Ni317       O319   1.905       .  S
Ni317      O1403   1.952       .  S
O318       Ni323   1.943       .  S
C320       O1409   1.275       .  A
C320        C494   1.479       .  S
O321       C1408   1.274       .  A
Ni322      O1403   1.929       .  S
Ni323      O1389   1.890       .  S
O325       Ni331   1.953       .  S
O326       Ni349   1.899   1_554  S
O326        C335   1.271       .  A
O327        H350   0.965       .  S
O327       Ni331   1.916       .  S
O327       Ni349   1.918       .  S
C328        O345   1.274       .  A
C328        O337   1.276       .  A
C328        C492   1.419       .  S
O329       Ni348   1.915       .  S
O330       Ni348   1.926       .  S
O330        C332   1.268       .  A
Ni331       O334   1.946       .  S
Ni331       O336   1.936       .  S
C332        O342   1.273       .  A
C332        C538   1.465       .  S
O333       Ni349   1.893       .  S
O333        C339   1.258       .  A
O334        C339   1.274       .  A
C335        C483   1.495       .  S
O336        C338   1.275       .  A
O337       Ni348   1.914       .  S
C338        O344   1.273       .  A
C338        C539   1.454       .  S
C339        C490   1.433       .  S
H340        O341   0.966       .  S
O341       Ni343   1.892       .  S
O341       Ni348   1.898       .  S
O342       Ni343   1.950       .  S
Ni343       O347   1.898       .  S
Ni343       O345   1.904       .  S
O344       Ni349   1.933       .  S
C346        O347   1.267       .  A
C346        C473   1.488       .  S
O351       Ni357   1.916       .  S
O351        C372   1.270       .  A
O352       Ni375   1.913       .  S
O352        C361   1.271       .  A
O353        H376   0.966       .  S
O353       Ni357   1.895       .  S
O353       Ni375   1.896       .  S
O353       Ni369   1.890       .  S
C354        O371   1.256       .  A
C354        O363   1.267       .  A
C354        C489   1.432       .  S
O355       Ni374   1.946       .  S
O355        C361   1.278       .  A
O356       Ni374   1.924       .  S
O356        C358   1.275       .  A
Ni357       O360   1.913       .  S
Ni357       O362   1.921       .  S
C358        O368   1.282       .  A
C358        C513   1.456       .  S
O359       Ni375   1.907       .  S
O359        C365   1.276       .  A
O360        C365   1.276       .  A
C361        C460   1.492       .  S
O362        C364   1.267       .  A
O363       Ni374   1.923       .  S
C364        O370   1.273       .  A
C364        C515   1.459       .  S
C365        C491   1.418       .  S
H366        O367   0.964       .  S
O367       Ni375   1.899       .  S
O367       Ni369   1.950       .  S
O367       Ni374   1.925       .  S
O368       Ni369   1.955       .  S
Ni369       O373   1.924       .  S
Ni369       O371   1.907       .  S
O370       Ni375   1.948       .  S
C372        O373   1.275       .  A
C372        C453   1.482       .  S
O377       Ni929   1.926       .  S
O378       Ni385   1.922       .  S
O378        C388   1.281   1_554  A
O379       Ni385   1.951   1_556  S
O379        C389   1.288   1_455  A
O380        C934   1.287   1_455  A
O381       Ni386   1.949   1_545  S
O381       C1478   1.288       .  A
O382       C2021   1.287   1_565  A
O383       Ni930   1.904       .  S
O383       C1204   1.279       .  A
O384       Ni386   1.912   1_545  S
O384       C1475   1.279       .  A
Ni385       O921   1.924       .  S
Ni385     Ni1746   2.382   1_454  S
Ni386       O927   1.902       .  S
Ni386     Ni1745   2.383   1_565  S
C387       O1472   1.283       .  A
C387       C1609   1.492       .  S
C388       O1199   1.283   1_455  A
C388        C531   1.486   1_556  S
C389       O2014   1.282       .  A
C389        C441   1.502       .  S
C390        O924   1.287   1_655  A
C390       O1469   1.282   1_545  A
C390        C445   1.498       .  S
O391       Ni399   1.924       .  S
O391        C401   1.283       .  A
O392       Ni943   1.909       .  S
O392        C402   1.279       .  A
O393       Ni399   1.925       .  S
O393        C947   1.281       .  A
O394       Ni399   1.930       .  S
O394        C404   1.283       .  A
O395       Ni400   1.921       .  S
O395       C2036   1.280   1_565  A
O396       Ni400   1.918       .  S
O396       C1491   1.279   1_565  A
O397       Ni400   1.929   1_545  S
O397       C1490   1.286       .  A
O398       Ni944   1.937       .  S
O398       C1489   1.286       .  A
Ni399       O936   1.925       .  S
Ni399     Ni2032   2.382   1_455  S
Ni400       O942   1.933       .  S
Ni400     Ni2031   2.384   1_565  S
C401       O1486   1.283   1_455  A
C401        C507   1.488       .  S
C402       O1485   1.284   1_455  A
C402       C1585   1.479       .  S
C403        O937   1.284       .  A
C403       O1484   1.284   1_445  A
C403        C442   1.496       .  S
C404       O2027   1.288   1_455  A
C404        C446   1.502       .  S
O405       Ni413   1.955   1_545  S
O405        C415   1.290       .  A
O406        C960   1.284       .  A
O407       Ni957   1.916       .  S
O408       Ni413   1.912   1_545  S
O408        C418   1.279       .  A
O409       Ni958   1.928       .  S
O410       Ni414   1.935       .  S
O410        C417   1.285   1_554  A
O411       Ni414   1.936   1_556  S
O411        C416   1.284       .  A
O412        C959   1.287       .  A
Ni413       O951   1.906       .  S
Ni413      Ni686   2.383   1_565  S
Ni414       O953   1.932       .  S
Ni414      Ni685   2.382   1_554  S
C415        O956   1.282       .  A
C415        C437   1.505       .  S
C416        O950   1.286       .  A
C416        C433   1.504       .  S
C417        C480   1.490       .  S
C418        C470   1.483       .  S
O419       Ni427   1.916       .  S
O419        C429   1.280   1_565  A
O420       Ni427   1.922       .  S
O420        C974   1.280       .  A
O421       Ni971   1.925       .  S
O421        C431   1.283       .  A
O422       Ni427   1.930   1_545  S
O422        C432   1.285       .  A
O423       Ni972   1.907       .  S
O423        C432   1.278       .  A
O424       Ni428   1.927       .  S
O424        C431   1.284       .  A
O425       Ni428   1.931       .  S
O425        C430   1.283       .  A
O426       Ni428   1.929       .  S
O426        C973   1.283       .  A
Ni427       O965   1.930       .  S
Ni427      Ni972   2.383   1_565  S
Ni428       O967   1.924       .  S
Ni428      Ni971   2.382       .  S
C429        O970   1.289       .  A
C429        C434   1.498       .  S
C430        O964   1.288       .  A
C430        C438   1.502       .  S
C431        C463   1.492       .  S
C432        C450   1.484       .  S
C433        C978   1.355       .  D
C433        H979   1.086       .  S
C434        C977   1.356   1_545  D
C434        H980   1.086       .  S
H435        C977   1.086       .  S
H436        C978   1.086       .  S
C437        C982   1.351       .  D
C437        H983   1.086       .  S
C438        C981   1.354       .  D
C438        H984   1.086       .  S
H439        C981   1.086       .  S
H440        C982   1.086   1_565  S
C441        C986   1.352   1_655  D
C441       H1531   1.086       .  S
C442        C985   1.356   1_445  D
C442        H444   1.086       .  S
H443       C1529   1.086       .  S
C445        C990   1.353   1_655  D
C445        H991   1.086       .  S
C446        C989   1.353   1_455  D
C446       H2080   1.086       .  S
H447        C989   1.086       .  S
H448       C2078   1.086   1_565  S
C449        C450   1.410       .  A
C449        C454   1.400       .  A
C449        H455   1.083       .  S
C450        C451   1.403       .  A
C451        C452   1.398       .  A
C451        H456   1.083       .  S
C452        C453   1.409       .  A
C452        H457   1.083       .  S
C453        C454   1.403       .  A
C454        H458   1.083       .  S
C459        C460   1.407       .  A
C459        C464   1.403       .  A
C459        H465   1.083       .  S
C460        C461   1.408       .  A
C461        C462   1.403       .  A
C461        H466   1.083       .  S
C462        C463   1.408       .  A
C462        H467   1.083       .  S
C463        C464   1.407       .  A
C464        H468   1.083       .  S
C469        C470   1.408       .  A
C469        C474   1.400       .  A
C470        C471   1.403       .  A
C471        C472   1.401       .  A
C471        H476   1.083       .  S
C472        C473   1.410       .  A
C472        H477   1.083       .  S
C473        C474   1.405       .  A
C479        C484   1.395       .  A
C479        H485   1.083       .  S
C480        C481   1.405       .  A
C481        C482   1.399       .  A
C481        H486   1.083       .  S
C482        C483   1.408   1_556  A
C482        H487   1.083       .  S
C484        H488   1.083       .  S
C489        C490   1.204       .  T
C491        C492   1.198       .  T
C493       C1582   1.403       .  A
C493        C498   1.399       .  A
C493        H499   1.083       .  S
C494       C1581   1.402       .  A
C494        C495   1.409       .  A
C495        C496   1.395       .  A
C495        H500   1.083       .  S
C496        C497   1.401       .  A
C496        H501   1.083       .  S
C497       C1490   1.480       .  S
C497       C1586   1.410       .  A
C498       C1585   1.408       .  A
C498        H502   1.083       .  S
C503       C1592   1.411       .  A
C503        C508   1.405       .  A
C503        H509   1.083       .  S
C504       C1591   1.408       .  A
C504        C505   1.408       .  A
C505        C506   1.402       .  A
C505        H510   1.083       .  S
C506        C507   1.407       .  A
C506        H511   1.083       .  S
C507       C1596   1.406       .  A
C508       C1595   1.405       .  A
C508        H512   1.083       .  S
C513        C514   1.218       .  T
C515        C516   1.220       .  T
C517       C1606   1.407       .  A
C517        C522   1.401   1_655  A
C517        H523   1.083   1_655  S
C518       C1605   1.409       .  A
C518        C519   1.405       .  A
C519        C520   1.404       .  A
C519        H524   1.083       .  S
C520        C521   1.411       .  A
C521       C1475   1.489       .  S
C521       C1610   1.403       .  A
C522       C1609   1.407   1_455  A
C522        H526   1.083       .  S
C527       C1616   1.408   1_556  A
C527        C532   1.400       .  A
C527        H533   1.083       .  S
C528       C1615   1.407   1_454  A
C528        C529   1.406       .  A
C530        H535   1.083       .  S
C531       C1620   1.403   1_454  A
C532       C1619   1.405   1_556  A
C532        H536   1.083       .  S
C541       C1630   1.204       .  T
C542       C1629   1.205       .  T
C543       C1632   1.197       .  T
C544       C1631   1.192       .  T
O545       Ni551   1.959       .  S
O545        C838   1.284       .  A
O546       Ni569   1.899       .  S
O546       C1643   1.272       .  A
O547        H570   0.966   1_655  S
O547      Ni1639   1.903       .  S
O547      Ni1657   1.907       .  S
O547       Ni835   1.884   1_655  S
C548        O565   1.276       .  A
C548        O557   1.276       .  A
C548        C815   1.419       .  S
O549       Ni568   1.916   1_556  S
O549        C827   1.270   1_455  A
O550       Ni568   1.922       .  S
O550        C552   1.267   1_554  A
Ni551       O554   1.949       .  S
Ni551       O556   1.936       .  S
Ni551      O1635   1.907       .  S
C552        O562   1.274       .  A
C552        C812   1.462       .  S
O553       Ni569   1.899       .  S
O553        C559   1.260       .  A
O554        C559   1.276       .  A
C555       O1634   1.269   1_455  A
C555        O821   1.283       .  A
C555        C800   1.490       .  S
O556        C558   1.276       .  A
O557       Ni568   1.911       .  S
C558        O564   1.276       .  A
C558        C809   1.459       .  S
C559        C814   1.438       .  S
H560        O561   0.966   1_554  S
O561       Ni841   1.891       .  S
O561      Ni1651   1.891       .  S
O561      Ni1656   1.894   1_556  S
O562       Ni563   1.951   1_455  S
Ni563       O567   1.909       .  S
Ni563       O565   1.908   1_656  S
Ni563       O819   1.899       .  S
Ni563      O1649   1.895       .  S
O564       Ni569   1.942       .  S
C566        O817   1.279       .  A
C566       O1655   1.269       .  A
C566        C790   1.489       .  S
O567       C1654   1.271       .  A
Ni568      O1649   1.899   1_454  S
Ni569      O1635   1.918       .  S
Ni569       O833   1.887       .  S
O571       Ni577   1.911       .  S
O571        C592   1.268       .  A
O572       Ni595   1.911       .  S
O572       C1669   1.271       .  A
O573        H596   0.966       .  S
O573      Ni1665   1.897   1_455  S
O573      Ni1683   1.893       .  S
O573       Ni589   1.887       .  S
C574        O591   1.253       .  A
C574        O583   1.267       .  A
C574        C813   1.434       .  S
O575       Ni594   1.945       .  S
O575        C581   1.278       .  A
O576       Ni594   1.931       .  S
O576        C578   1.277       .  A
Ni577       O580   1.906       .  S
Ni577       O582   1.921       .  S
Ni577      O1661   1.897       .  S
C578        O588   1.280       .  A
C578        C788   1.459       .  S
O579       Ni595   1.904       .  S
O579        C585   1.274       .  A
O580        C585   1.275       .  A
C581       O1660   1.270       .  A
C581        C776   1.491       .  S
O582        C584   1.267       .  A
O583       Ni594   1.918       .  S
C584        O590   1.272       .  A
C584        C786   1.459       .  S
C585        C816   1.411       .  S
H586        O587   0.964       .  S
O587       Ni595   1.896       .  S
O587      Ni1677   1.951       .  S
O587      Ni1682   1.918       .  S
O588       Ni589   1.952       .  S
Ni589       O593   1.914       .  S
Ni589       O591   1.904       .  S
Ni589      O1675   1.954       .  S
O590       Ni595   1.945       .  S
C592       O1681   1.275       .  A
C592        C766   1.476       .  S
O593       C1680   1.272       .  A
Ni594      O1675   1.929       .  S
Ni595      O1661   1.894       .  S
O597       Ni603   1.946       .  S
O597        C890   1.279       .  A
O598       Ni621   1.894       .  S
O598        C607   1.269       .  A
O599        H622   0.965       .  S
O599       Ni603   1.918       .  S
O599       Ni621   1.926       .  S
O599       Ni887   1.890       .  S
C600        O617   1.273       .  A
C600        O609   1.275       .  A
C600        C764   1.412       .  S
O601       Ni620   1.911   1_556  S
O601        C879   1.270       .  A
O602       Ni620   1.921       .  S
O602        C604   1.267   1_554  A
Ni603       O606   1.941       .  S
Ni603       O608   1.931       .  S
C604        O614   1.272       .  A
C604        C810   1.457       .  S
O605       Ni621   1.898       .  S
O605        C611   1.258       .  A
O606        C611   1.272       .  A
C607        O873   1.281       .  A
C607        C755   1.489       .  S
O608        C610   1.274       .  A
O609       Ni620   1.907       .  S
C610        O616   1.273       .  A
C610        C811   1.452       .  S
C611        C762   1.436       .  S
H612        O613   0.966   1_554  S
O613       Ni893   1.891       .  S
O613       Ni615   1.893       .  S
O613       Ni620   1.895   1_556  S
O614       Ni615   1.944       .  S
Ni615       O619   1.901       .  S
Ni615       O617   1.902   1_556  S
Ni615       O871   1.893       .  S
O616       Ni621   1.934       .  S
C618        O869   1.280       .  A
C618        O619   1.268       .  A
C618        C745   1.490       .  S
Ni621       O885   1.884       .  S
O623       Ni629   1.914       .  S
O623        C644   1.269       .  A
O624       Ni647   1.910       .  S
O624        C633   1.270       .  A
O625        H648   0.966       .  S
O625       Ni629   1.900       .  S
O625       Ni647   1.895       .  S
O625       Ni641   1.884       .  S
C626        O643   1.253       .  A
C626        O635   1.267       .  A
C626        C761   1.435       .  S
O627       Ni646   1.947       .  S
O627        C633   1.278       .  A
O628       Ni646   1.926       .  S
O628        C630   1.276       .  A
Ni629       O632   1.911       .  S
Ni629       O634   1.921       .  S
C630        O640   1.283       .  A
C630        C785   1.459       .  S
O631       Ni647   1.899       .  S
O631        C637   1.274       .  A
O632        C637   1.276       .  A
C633        C732   1.495       .  S
O634        C636   1.267       .  A
O635       Ni646   1.918       .  S
C636        O642   1.272       .  A
C636        C787   1.459       .  S
C637        C763   1.413       .  S
H638        O639   0.964       .  S
O639       Ni647   1.901       .  S
O639       Ni641   1.955       .  S
O639       Ni646   1.925       .  S
O640       Ni641   1.959       .  S
Ni641       O645   1.914       .  S
Ni641       O643   1.906       .  S
O642       Ni647   1.944       .  S
C644        O645   1.273       .  A
C644        C725   1.475       .  S
O649        C931   1.284   1_455  A
O650       Ni657   1.924   1_565  S
O650        C660   1.282   1_455  A
O651       Ni657   1.951       .  S
O651        C661   1.287   1_445  A
O652       Ni929   1.927       .  S
O653       Ni658   1.942   1_554  S
O653       C1750   1.286       .  A
O654       Ni930   1.935       .  S
O654       C1205   1.285       .  A
O655       C2020   1.278       .  A
O656       Ni658   1.922       .  S
O656       C1747   1.282       .  A
Ni657       O924   1.946       .  S
Ni657     Ni1474   2.382   1_445  S
Ni658       O926   1.937       .  S
Ni658     Ni1473   2.383   1_556  S
C659        O921   1.283   1_656  A
C659       O1744   1.283       .  A
C659       C1881   1.491       .  S
C660       O2015   1.284       .  A
C660        C803   1.490   1_655  S
C661       O1198   1.282       .  A
C661        C713   1.499       .  S
C662       O1741   1.284       .  A
C662        C717   1.507       .  S
O663       Ni671   1.917   1_565  S
O663        C673   1.281       .  A
O664        C674   1.281       .  A
O665       Ni671   1.946       .  S
O666       Ni671   1.952       .  S
O666        C676   1.288   1_445  A
O667       Ni672   1.933       .  S
O667       C1220   1.283       .  A
O668       Ni672   1.928       .  S
O668       C1763   1.282       .  A
O669       Ni672   1.927       .  S
O669       C1762   1.284       .  A
O670       C1761   1.286       .  A
Ni671     Ni1216   2.382   1_445  S
Ni672     Ni1215   2.385       .  S
C673       O1758   1.285   1_455  A
C673        C779   1.490       .  S
C674       O1757   1.282   1_455  A
C674       C1857   1.481       .  S
C675       O1756   1.287   1_455  A
C675        C714   1.503       .  S
C676       O1211   1.283       .  A
C676        C718   1.505       .  S
O677       Ni685   1.949   1_554  S
O677        C687   1.288       .  A
O678       Ni957   1.928       .  S
O679        C961   1.280       .  A
O680       Ni685   1.920       .  S
O680        C690   1.281       .  A
O681        C962   1.283       .  A
O682       Ni686   1.933   1_565  S
O682        C689   1.285       .  A
O683       Ni686   1.931       .  S
O683        C688   1.283   1_545  A
O684       Ni958   1.945       .  S
Ni685       O950   1.945       .  S
Ni686       O956   1.929       .  S
C687        C709   1.502       .  S
C688        C705   1.505       .  S
C689        O951   1.279       .  A
C689        C752   1.484       .  S
C690        O953   1.285   1_556  A
C690        C742   1.491       .  S
O691       Ni699   1.925       .  S
O691        C701   1.282       .  A
O692       Ni699   1.928       .  S
O693        C703   1.285       .  A
O694       Ni699   1.928       .  S
O694        C704   1.285       .  A
O695        C704   1.277       .  A
O696       Ni700   1.921   1_565  S
O696        C703   1.282       .  A
O697       Ni700   1.930   1_565  S
O697        C702   1.283       .  A
O698       Ni700   1.926       .  S
C701        C706   1.497       .  S
C702        C710   1.501       .  S
C703        C735   1.492       .  S
C704        C722   1.477       .  S
C713       H1803   1.086       .  S
C714        H716   1.086       .  S
H715       C1801   1.086       .  S
C718       H1264   1.086       .  S
H720       C1262   1.086       .  S
C721        C722   1.408       .  A
C721        C726   1.394       .  A
C721        H727   1.083       .  S
C722        C723   1.403       .  A
C723        C724   1.397       .  A
C723        H728   1.083       .  S
C724        C725   1.408       .  A
C724        H729   1.083       .  S
C725        C726   1.401       .  A
C726        H730   1.083       .  S
C731        C732   1.407       .  A
C731        C736   1.403       .  A
C731        H737   1.083       .  S
C732        C733   1.410       .  A
C733        C734   1.404       .  A
C733        H738   1.083       .  S
C734        C735   1.406       .  A
C734        H739   1.083       .  S
C735        C736   1.408       .  A
C736        H740   1.083       .  S
C741        C742   1.409       .  A
C741        C746   1.403       .  A
C741       H1019   1.083       .  S
C742        C743   1.405   1_556  A
C743        C744   1.401   1_554  A
C743        H748   1.083       .  S
C744        C745   1.408       .  A
C744        H749   1.083       .  S
C745        C746   1.405       .  A
C746       H1022   1.083       .  S
H747       C1013   1.083       .  S
H750       C1018   1.083       .  S
C751       C1024   1.403       .  A
C751        C756   1.395       .  A
C751        H757   1.083   1_556  S
C752       C1023   1.407       .  A
C752        C753   1.405       .  A
C753        C754   1.395       .  A
C753        H758   1.083       .  S
C754        C755   1.407       .  A
C754        H759   1.083       .  S
C755       C1028   1.408       .  A
C756       C1027   1.408       .  A
C756        H760   1.083       .  S
C761        C762   1.206       .  T
C763        C764   1.194       .  T
C765       C1854   1.404       .  A
C765        C770   1.400       .  A
C765        H771   1.083       .  S
C766       C1853   1.400       .  A
C766        C767   1.409       .  A
C767        C768   1.397       .  A
C767        H772   1.083       .  S
C768        C769   1.402       .  A
C768        H773   1.083       .  S
C769       C1762   1.477       .  S
C769       C1858   1.408       .  A
C770       C1857   1.407       .  A
C770        H774   1.083       .  S
C775       C1864   1.410       .  A
C775        C780   1.405       .  A
C775        H781   1.083       .  S
C776       C1863   1.409   1_455  A
C776        C777   1.407       .  A
C777        C778   1.402       .  A
C777        H782   1.083       .  S
C778        C779   1.409       .  A
C778        H783   1.083       .  S
C779       C1868   1.405   1_455  A
C780       C1867   1.406       .  A
C780        H784   1.083       .  S
C785        C786   1.220       .  T
C787        C788   1.220       .  T
C789       C1878   1.407   1_455  A
C789        C794   1.401       .  A
C789        H795   1.083       .  S
C790       C1877   1.408       .  A
C790        C791   1.405       .  A
C791        C792   1.401       .  A
C791        H796   1.083       .  S
C792        C793   1.408       .  A
C792       H1069   1.083       .  S
C793       C1747   1.490       .  S
C793       C1882   1.407   1_556  A
C794       C1881   1.407   1_455  A
C794        H798   1.083   1_556  S
H797       C1064   1.083       .  S
C799       C1888   1.404       .  A
C799        C804   1.393       .  A
C799        H805   1.083       .  S
C800       C1887   1.408   1_455  A
C800        C801   1.407       .  A
C801       C1074   1.407       .  A
C801       H1078   1.083       .  S
C802       C1073   1.395       .  A
C802       C1075   1.403   1_455  A
C802        H807   1.083       .  S
C803       C1074   1.410       .  A
C803       C1892   1.404   1_455  A
C804       C1891   1.407       .  A
C804        H808   1.083       .  S
H806       C1073   1.083       .  S
C809       C1082   1.220       .  T
C810       C1081   1.219       .  T
C811       C1084   1.216       .  T
C812       C1083   1.222       .  T
C813       C1902   1.206       .  T
C814       C1901   1.207       .  T
C815       C1904   1.199   1_455  T
C816       C1903   1.193       .  T
O817       Ni823   1.948       .  S
O818       Ni841   1.924       .  S
O818       C1915   1.275       .  A
O819        H842   0.964       .  S
O819      Ni1911   1.927       .  S
O819      Ni1929   1.952       .  S
C820        O837   1.258       .  A
C820        O829   1.275       .  A
C820       C1087   1.435       .  S
O821       Ni840   1.963       .  S
O822       Ni840   1.929       .  S
O822        C824   1.276       .  A
Ni823       O826   1.914       .  S
Ni823       O828   1.923       .  S
Ni823      O1907   1.923       .  S
C824        O834   1.276       .  A
C824       C1084   1.452       .  S
O825       Ni841   1.910       .  S
O825        C831   1.256       .  A
O826        C831   1.266       .  A
C827       O1906   1.272       .  A
C827       C1072   1.476       .  S
O828        C830   1.276       .  A
O829       Ni840   1.941       .  S
C830        O836   1.283       .  A
C830       C1081   1.457       .  S
C831       C1086   1.428       .  S
H832        O833   0.965       .  S
O833      Ni1923   1.924       .  S
O833      Ni1928   1.912       .  S
O834       Ni835   1.941       .  S
Ni835       O839   1.905       .  S
Ni835       O837   1.899       .  S
Ni835      O1921   1.932       .  S
O836       Ni841   1.960       .  S
C838       O1927   1.270       .  A
C838       C1062   1.487       .  S
O839       C1926   1.273   1_455  A
Ni840      O1921   1.908       .  S
Ni841      O1907   1.954       .  S
O843       Ni849   1.957       .  S
O843        C864   1.281       .  A
O844       Ni867   1.902       .  S
O844       C1941   1.270       .  A
O845        H868   0.965   1_655  S
O845      Ni1937   1.911       .  S
O845      Ni1955   1.938       .  S
O845       Ni861   1.883   1_655  S
C846        O863   1.257       .  A
C846        O855   1.273       .  A
C846       C1085   1.433   1_455  S
O847       Ni866   1.955       .  S
O847        C853   1.283       .  A
O848       Ni866   1.938       .  S
O848        C850   1.276       .  A
Ni849       O852   1.926       .  S
Ni849       O854   1.926       .  S
Ni849      O1933   1.917       .  S
C850        O860   1.274       .  A
C850       C1060   1.457       .  S
O851       Ni867   1.905       .  S
O851        C857   1.257       .  A
O852        C857   1.271       .  A
C853       O1932   1.270   1_455  A
C853       C1048   1.489       .  S
O854        C856   1.275       .  A
O855       Ni866   1.947       .  S
C856        O862   1.276       .  A
C856       C1058   1.451       .  S
C857       C1088   1.432       .  S
H858        O859   0.966       .  S
O859       Ni867   1.886       .  S
O859      Ni1949   1.917       .  S
O859      Ni1954   1.915       .  S
O860       Ni861   1.934       .  S
Ni861       O865   1.896       .  S
Ni861       O863   1.893       .  S
Ni861      O1947   1.920   1_455  S
O862       Ni867   1.943       .  S
C864       O1953   1.272       .  A
C864       C1038   1.495       .  S
O865       C1952   1.270   1_455  A
Ni866      O1947   1.918   1_455  S
Ni867      O1933   1.943       .  S
O869       Ni875   1.954       .  S
O870       Ni893   1.920       .  S
O870        C879   1.274       .  A
O871        H894   0.964       .  S
O871       Ni875   1.924       .  S
O871       Ni893   1.949       .  S
C872        O889   1.261       .  A
C872        O881   1.275       .  A
C872       C1036   1.435       .  S
O873       Ni892   1.958       .  S
O874       Ni892   1.931       .  S
O874        C876   1.275       .  A
Ni875       O878   1.924       .  S
Ni875       O880   1.930       .  S
C876        O886   1.277       .  A
C876       C1082   1.458       .  S
O877       Ni893   1.908       .  S
O877        C883   1.256       .  A
O878        C883   1.269       .  A
C879       C1027   1.480       .  S
O880        C882   1.276       .  A
O881       Ni892   1.940       .  S
C882        O888   1.282       .  A
C882       C1083   1.462       .  S
C883       C1034   1.435       .  S
H884        O885   0.966       .  S
O885       Ni887   1.925       .  S
O885       Ni892   1.911       .  S
O886       Ni887   1.944       .  S
Ni887       O891   1.909       .  S
Ni887       O889   1.898       .  S
O888       Ni893   1.957       .  S
C890        O891   1.272       .  A
C890       C1017   1.489       .  S
O895       Ni901   1.961       .  S
O895        C916   1.283       .  A
O896       Ni919   1.902       .  S
O896        C905   1.271       .  A
O897        H920   0.965       .  S
O897       Ni901   1.910       .  S
O897       Ni919   1.938       .  S
O897       Ni913   1.883       .  S
C898        O915   1.258       .  A
C898        O907   1.273       .  A
C898       C1033   1.436       .  S
O899       Ni918   1.952       .  S
O899        C905   1.282       .  A
O900       Ni918   1.938       .  S
O900        C902   1.275       .  A
Ni901       O904   1.929       .  S
Ni901       O906   1.929       .  S
C902        O912   1.271       .  A
C902       C1057   1.452       .  S
O903       Ni919   1.906       .  S
O903        C909   1.259       .  A
O904        C909   1.273       .  A
C905       C1004   1.488       .  S
O906        C908   1.276       .  A
O907       Ni918   1.947       .  S
C908        O914   1.279       .  A
C908       C1059   1.457       .  S
C909       C1035   1.434       .  S
H910        O911   0.965       .  S
O911       Ni919   1.886       .  S
O911       Ni913   1.918       .  S
O911       Ni918   1.920       .  S
O912       Ni913   1.927       .  S
Ni913       O917   1.890       .  S
Ni913       O915   1.895       .  S
O914       Ni919   1.950       .  S
C916        O917   1.267       .  A
C916        C997   1.488       .  S
O922       Ni929   1.924   1_566  S
O922        C932   1.284   1_455  A
O923       Ni929   1.923   1_556  S
O923        C933   1.281   1_445  A
O925       Ni930   1.943       .  S
O925       C2022   1.286       .  A
O926       C1477   1.285       .  A
O927       C1748   1.278       .  A
O928       Ni930   1.915       .  S
O928       C2019   1.280       .  A
Ni929     Ni1202   2.383   1_444  S
Ni930     Ni1201   2.384       .  S
C931       O2016   1.282       .  A
C931       C2153   1.489       .  S
C932       O1743   1.278       .  A
C932       C1075   1.479       .  S
C933       O1470   1.288       .  A
C933        C985   1.501       .  S
C934       O2013   1.284       .  A
C934        C989   1.503       .  S
O935       Ni943   1.914   1_565  S
O935        C945   1.280       .  A
O936        C946   1.284       .  A
O937       Ni943   1.931       .  S
O938       Ni943   1.935       .  S
O938        C948   1.284       .  A
O939       Ni944   1.933       .  S
O939       C1492   1.284       .  A
O940       Ni944   1.941       .  S
O940       C2035   1.285       .  A
O941       Ni944   1.939       .  S
O941       C2034   1.285       .  A
O942       C2033   1.286       .  A
Ni943     Ni1488   2.384   1_445  S
Ni944     Ni1487   2.383       .  S
C945       O2030   1.285   1_455  A
C945       C1051   1.487       .  S
C946       O2029   1.282   1_455  A
C946       C2129   1.491   1_455  S
C947       O2028   1.289   1_455  A
C947        C986   1.501       .  S
C948       O1483   1.285   1_445  A
C948        C990   1.499       .  S
O949       Ni957   1.934       .  S
O949        C959   1.284       .  A
O952       Ni957   1.920       .  S
O952        C962   1.282       .  A
O954       Ni958   1.919   1_566  S
O954        C961   1.283       .  A
O955       Ni958   1.941   1_556  S
O955        C960   1.284   1_545  A
C959        C981   1.502       .  S
C960        C977   1.492       .  S
C961       C1024   1.480       .  S
C962       C1014   1.488       .  S
O963       Ni971   1.952       .  S
O963        C973   1.287       .  A
O964       Ni971   1.950       .  S
O965        C975   1.285       .  A
O966       Ni971   1.918       .  S
O966        C976   1.281       .  A
O967        C976   1.284       .  A
O968       Ni972   1.916   1_565  S
O968        C975   1.280       .  A
O969       Ni972   1.962       .  S
O969        C974   1.291   1_545  A
O970       Ni972   1.952       .  S
C973        C978   1.501       .  S
C974        C982   1.504   1_565  S
C975       C1007   1.489       .  S
C976        C994   1.486       .  S
C985       H2075   1.086       .  S
C986        H988   1.086       .  S
H987       C2073   1.086   1_565  S
C990       H1536   1.086       .  S
H992       C1534   1.086       .  S
C993        C994   1.403       .  A
C993        C998   1.397       .  A
C993        H999   1.083       .  S
C994        C995   1.409       .  A
C995        C996   1.403       .  A
C995       H1000   1.083       .  S
C996        C997   1.405       .  A
C996       H1001   1.083       .  S
C997        C998   1.409       .  A
C998       H1002   1.083       .  S
C1003      C1004   1.406       .  A
C1003      C1008   1.403       .  A
C1003      H1009   1.083       .  S
C1004      C1005   1.408       .  A
C1005      C1006   1.400       .  A
C1005      H1010   1.083       .  S
C1006      C1007   1.404       .  A
C1006      H1011   1.083       .  S
C1007      C1008   1.410       .  A
C1008      H1012   1.083       .  S
C1013      C1014   1.407       .  A
C1013      C1018   1.401       .  A
C1014      C1015   1.406       .  A
C1015      C1016   1.402       .  A
C1015      H1020   1.083       .  S
C1016      C1017   1.407       .  A
C1016      H1021   1.083       .  S
C1017      C1018   1.407       .  A
C1023      C1028   1.405       .  A
C1023      H1029   1.083       .  S
C1024      C1025   1.408       .  A
C1025      C1026   1.400       .  A
C1025      H1030   1.083       .  S
C1026      C1027   1.403       .  A
C1026      H1031   1.083       .  S
C1028      H1032   1.083       .  S
C1033      C1034   1.206       .  T
C1035      C1036   1.206       .  T
C1037      C2126   1.408   1_455  A
C1037      C1042   1.397       .  A
C1037      H1043   1.083       .  S
C1038      C2125   1.407       .  A
C1038      C1039   1.410       .  A
C1039      C1040   1.409       .  A
C1039      H1044   1.083       .  S
C1040      C1041   1.408       .  A
C1040      H1045   1.083       .  S
C1041      C2034   1.489       .  S
C1041      C2130   1.405       .  A
C1042      C2129   1.404   1_455  A
C1042      H1046   1.083       .  S
C1047      C2136   1.409       .  A
C1047      C1052   1.401       .  A
C1047      H1053   1.083       .  S
C1048      C2135   1.409   1_455  A
C1048      C1049   1.405       .  A
C1049      C1050   1.401       .  A
C1049      H1054   1.083       .  S
C1050      C1051   1.409       .  A
C1050      H1055   1.083       .  S
C1051      C2140   1.404   1_455  A
C1052      C2139   1.404       .  A
C1052      H1056   1.083       .  S
C1057      C1058   1.216       .  T
C1059      C1060   1.219       .  T
C1061      C2150   1.409   1_455  A
C1061      C1066   1.401       .  A
C1061      H1067   1.083       .  S
C1062      C2149   1.409       .  A
C1062      C1063   1.404       .  A
C1063      C1064   1.402       .  A
C1063      H1068   1.083       .  S
C1064      C1065   1.410       .  A
C1065      C2019   1.489       .  S
C1065      C2154   1.405       .  A
C1066      C2153   1.406   1_455  A
C1066      H1070   1.083       .  S
C1071      C2160   1.403       .  A
C1071      C1076   1.401       .  A
C1071      H1077   1.083       .  S
C1072      C2159   1.403       .  A
C1072      C1073   1.406   1_655  A
C1074      H1079   1.083       .  S
C1075      C2164   1.408       .  A
C1076      C2163   1.409       .  A
C1076      H1080   1.083       .  S
C1085      C2174   1.204       .  T
C1086      C2173   1.202       .  T
C1087      C2176   1.206   1_455  T
C1088      C2175   1.204       .  T
O1089     Ni1095   1.946       .  S
O1089      C1382   1.278       .  A
O1090     Ni1113   1.910       .  S
O1091      H1114   0.964       .  S
O1091     Ni1379   1.898       .  S
C1092      O1109   1.258       .  A
C1092      O1101   1.272       .  A
C1092      C1359   1.429       .  S
O1093     Ni1112   1.955       .  S
O1093      C1371   1.281       .  A
O1094     Ni1112   1.926       .  S
O1094      C1096   1.275       .  A
Ni1095     O1098   1.923       .  S
Ni1095     O1100   1.927       .  S
C1096      O1106   1.277       .  A
C1096      C1356   1.453       .  S
O1097     Ni1113   1.904       .  S
O1097      C1103   1.255       .  A
O1098      C1103   1.267       .  A
C1099      O1365   1.270       .  A
C1099      C1344   1.479       .  S
O1100      C1102   1.275       .  A
O1101     Ni1112   1.931       .  S
C1102      O1108   1.281       .  A
C1102      C1353   1.459       .  S
C1103      C1358   1.432       .  S
H1104      O1105   0.965   1_655  S
O1105     Ni1385   1.884   1_454  S
O1106     Ni1107   1.944       .  S
Ni1107     O1111   1.908       .  S
Ni1107     O1109   1.903       .  S
Ni1107     O1363   1.887   1_554  S
O1108     Ni1113   1.955       .  S
C1110      O1361   1.282       .  A
C1110      C1334   1.484       .  S
Ni1113     O1377   1.888       .  S
O1115     Ni1121   1.963       .  S
O1115      C1136   1.282       .  A
O1116     Ni1139   1.907       .  S
O1117      H1140   0.965       .  S
O1117     Ni1133   1.889       .  S
C1118      O1135   1.258       .  A
C1118      O1127   1.273       .  A
C1118      C1357   1.435       .  S
O1119     Ni1138   1.953       .  S
O1119      C1125   1.282       .  A
O1120     Ni1138   1.926       .  S
O1120      C1122   1.274       .  A
Ni1121     O1124   1.937       .  S
Ni1121     O1126   1.927       .  S
C1122      O1132   1.277       .  A
C1122      C1332   1.450       .  S
O1123     Ni1139   1.903       .  S
O1123      C1129   1.260       .  A
O1124      C1129   1.275       .  A
C1125      C1320   1.486       .  S
O1126      C1128   1.275       .  A
O1127     Ni1138   1.943       .  S
C1128      O1134   1.279       .  A
C1128      C1330   1.457       .  S
C1129      C1360   1.439       .  S
H1130      O1131   0.965   1_655  S
O1131     Ni1139   1.887   1_455  S
O1132     Ni1133   1.939       .  S
Ni1133     O1137   1.904       .  S
Ni1133     O1135   1.899       .  S
O1134     Ni1139   1.951       .  S
C1136      C1310   1.493       .  S
O1141     Ni1147   1.948       .  S
O1141      C1434   1.279       .  A
O1142     Ni1165   1.922       .  S
O1142      C1151   1.274       .  A
O1143      H1166   0.964       .  S
O1143     Ni1147   1.925       .  S
O1143     Ni1165   1.951       .  S
O1143     Ni1431   1.899       .  S
C1144      O1161   1.256       .  A
C1144      O1153   1.270       .  A
C1144      C1308   1.433       .  S
O1145     Ni1164   1.954       .  S
O1145      C1423   1.280       .  A
O1146     Ni1164   1.932       .  S
O1146      C1148   1.276       .  A
Ni1147     O1150   1.925       .  S
Ni1147     O1152   1.931       .  S
C1148      O1158   1.274       .  A
C1148      C1354   1.452       .  S
O1149     Ni1165   1.905       .  S
O1149      C1155   1.255       .  A
O1150      C1155   1.268       .  A
C1151      O1417   1.270       .  A
C1151      C1299   1.480       .  S
O1152      C1154   1.276       .  A
O1153     Ni1164   1.929       .  S
C1154      O1160   1.280       .  A
C1154      C1355   1.457       .  S
C1155      C1306   1.435       .  S
H1156      O1157   0.965       .  S
O1157     Ni1437   1.890   1_554  S
O1157     Ni1159   1.939       .  S
O1157     Ni1164   1.922       .  S
O1158     Ni1159   1.936       .  S
Ni1159     O1163   1.896       .  S
Ni1159     O1161   1.901       .  S
Ni1159     O1415   1.889   1_554  S
O1160     Ni1165   1.951       .  S
C1162      O1413   1.280       .  A
C1162      O1163   1.267   1_556  A
C1162      C1289   1.486   1_556  S
Ni1165     O1429   1.889       .  S
O1167     Ni1173   1.954       .  S
O1167      C1188   1.282       .  A
O1168     Ni1191   1.901       .  S
O1168      C1177   1.271       .  A
O1169      H1192   0.965       .  S
O1169     Ni1173   1.905       .  S
O1169     Ni1191   1.925       .  S
O1169     Ni1185   1.886       .  S
C1170      O1187   1.259       .  A
C1170      O1179   1.275       .  A
C1170      C1305   1.436       .  S
O1171     Ni1190   1.952       .  S
O1171      C1177   1.283       .  A
O1172     Ni1190   1.937       .  S
O1172      C1174   1.276       .  A
Ni1173     O1176   1.941       .  S
Ni1173     O1178   1.924       .  S
C1174      O1184   1.275       .  A
C1174      C1329   1.457       .  S
O1175     Ni1191   1.898       .  S
O1175      C1181   1.260       .  A
O1176      C1181   1.275       .  A
C1177      C1276   1.487       .  S
O1178      C1180   1.273       .  A
O1179     Ni1190   1.949       .  S
C1180      O1186   1.276       .  A
C1180      C1331   1.450       .  S
C1181      C1307   1.433       .  S
H1182      O1183   0.965       .  S
O1183     Ni1191   1.885       .  S
O1183     Ni1185   1.916       .  S
O1183     Ni1190   1.908       .  S
O1184     Ni1185   1.938       .  S
Ni1185     O1189   1.903       .  S
Ni1185     O1187   1.895       .  S
O1186     Ni1191   1.940       .  S
C1188      O1189   1.273       .  A
C1188      C1269   1.492       .  S
O1193     Ni1745   1.936       .  S
O1193      C1475   1.287       .  A
O1194     Ni1201   1.927       .  S
O1194      C1204   1.284       .  A
O1195     Ni1201   1.928       .  S
O1195      C1205   1.282       .  A
O1196     Ni1473   1.934       .  S
O1196      C1750   1.284       .  A
O1197     Ni1202   1.958   1_554  S
O1198     Ni1474   1.926       .  S
O1199     Ni1746   1.921       .  S
O1200     Ni1202   1.910   1_544  S
Ni1201     O1737   1.932       .  S
Ni1201     O1468   1.932       .  S
Ni1202     O1470   1.951       .  S
Ni1202     O1743   1.905       .  S
C1203      O1465   1.285       .  A
C1204      C1347   1.480       .  S
C1205      C1257   1.491       .  S
C1206      O1740   1.281       .  A
C1206      C1261   1.498   1_545  S
O1207     Ni1215   1.908       .  S
O1207      C1217   1.279       .  A
O1208     Ni1759   1.913       .  S
O1208      C1218   1.280       .  A
O1209     Ni1215   1.935       .  S
O1209      C1763   1.285       .  A
O1210     Ni1215   1.944       .  S
O1210      C1220   1.286       .  A
O1211     Ni1216   1.930       .  S
O1212     Ni1216   1.934       .  S
O1213     Ni1216   1.939   1_545  S
O1214     Ni1760   1.926       .  S
Ni1215     O1752   1.898       .  S
Ni1216     O1758   1.934       .  S
C1217      C1323   1.484       .  S
C1219      O1753   1.285   1_565  A
C1219      C1258   1.498   1_565  S
C1220      C1262   1.500       .  S
O1221     Ni1229   1.950   1_554  S
O1221      C1231   1.288       .  A
O1222     Ni1501   1.937       .  S
O1222      C1776   1.285       .  A
O1223     Ni1773   1.913       .  S
O1223      C1505   1.281   1_556  A
O1224     Ni1229   1.906   1_554  S
O1224      C1234   1.279       .  A
O1225     Ni1774   1.936       .  S
O1225      C1506   1.286       .  A
O1226     Ni1230   1.920       .  S
O1226      C1233   1.284       .  A
O1227     Ni1230   1.940       .  S
O1227      C1232   1.285       .  A
O1228     Ni1502   1.930       .  S
O1228      C1775   1.283       .  A
Ni1229     O1494   1.942       .  S
Ni1229     O1767   1.899   1_545  S
Ni1229    Ni2046   2.385   1_556  S
Ni1230     O1769   1.931       .  S
Ni1230     O1500   1.950       .  S
Ni1230    Ni2045   2.383       .  S
C1231      O1772   1.281       .  A
C1231      C1253   1.497       .  S
C1232      O1766   1.283       .  A
C1232      C1249   1.496       .  S
C1233      O1495   1.279       .  A
C1233      C1296   1.479       .  S
C1234      O1497   1.285       .  A
C1234      C1286   1.481       .  S
O1235     Ni1243   1.933       .  S
O1235      C1245   1.283   1_565  A
O1236     Ni1243   1.930       .  S
O1236      C1790   1.283       .  A
O1237     Ni1787   1.928       .  S
O1237      C1247   1.284       .  A
O1238     Ni1243   1.936   1_545  S
O1238      C1248   1.285       .  A
O1239     Ni1788   1.914       .  S
O1239      C1248   1.281       .  A
O1240     Ni1244   1.915       .  S
O1240      C1247   1.281       .  A
O1241     Ni1244   1.931       .  S
O1241      C1246   1.284       .  A
O1242     Ni1244   1.929       .  S
O1242      C1789   1.283       .  A
Ni1243     O1781   1.936       .  S
Ni1243    Ni1788   2.383   1_565  S
Ni1244     O1783   1.913       .  S
Ni1244    Ni1787   2.384       .  S
C1245      O1786   1.285       .  A
C1245      C1250   1.495       .  S
C1246      O1780   1.286       .  A
C1246      C1254   1.501       .  S
C1247      C1279   1.487       .  S
C1248      C1266   1.488       .  S
C1249      C1794   1.351       .  D
C1249      H1795   1.086       .  S
C1250      C1793   1.354   1_545  D
C1250      H1796   1.086       .  S
H1251      C1793   1.086       .  S
H1252      C1794   1.086       .  S
C1253      C1798   1.351   1_545  D
C1253      H1799   1.086       .  S
C1254      C1797   1.357       .  D
C1254      H1800   1.087       .  S
H1255      C1797   1.086       .  S
H1256      C1798   1.086       .  S
C1257      C1802   1.353       .  D
C1258      C1801   1.356   1_545  D
C1258      H1260   1.086       .  S
C1261      C1806   1.351       .  D
C1261      H1807   1.086   1_565  S
C1262      C1805   1.354       .  D
H1263      C1805   1.086       .  S
C1265      C1266   1.406       .  A
C1265      C1270   1.399       .  A
C1265      H1271   1.083       .  S
C1266      C1267   1.407       .  A
C1267      C1268   1.405       .  A
C1267      H1272   1.083       .  S
C1268      C1269   1.409       .  A
C1268      H1273   1.083       .  S
C1269      C1270   1.407       .  A
C1270      H1274   1.083       .  S
C1275      C1276   1.404       .  A
C1275      C1280   1.399       .  A
C1275      H1281   1.083       .  S
C1276      C1277   1.409       .  A
C1277      C1278   1.401       .  A
C1277      H1282   1.083       .  S
C1278      C1279   1.405       .  A
C1278      H1283   1.083       .  S
C1279      C1280   1.408       .  A
C1280      H1284   1.083       .  S
C1285      C1286   1.408   1_556  A
C1285      C1290   1.397       .  A
C1285      H1563   1.083       .  S
C1286      C1287   1.403       .  A
C1287      C1288   1.401       .  A
C1287      H1292   1.083       .  S
C1288      C1289   1.410       .  A
C1288      H1293   1.083       .  S
C1289      C1290   1.404   1_554  A
C1290      H1566   1.083       .  S
H1291      C1557   1.083       .  S
H1294      C1562   1.083       .  S
C1295      C1568   1.408       .  A
C1295      C1300   1.407       .  A
C1295      H1301   1.083       .  S
C1296      C1567   1.402       .  A
C1296      C1297   1.409       .  A
C1297      C1298   1.401       .  A
C1297      H1302   1.083       .  S
C1298      C1299   1.404       .  A
C1298      H1303   1.083       .  S
C1299      C1572   1.407       .  A
C1300      C1571   1.409       .  A
C1300      H1304   1.083       .  S
C1305      C1306   1.206       .  T
C1307      C1308   1.205       .  T
C1309      C1314   1.399       .  A
C1309      H1315   1.083       .  S
C1310      C1311   1.410       .  A
C1311      C1312   1.411       .  A
C1311      H1316   1.083       .  S
C1312      C1313   1.410       .  A
C1312      H1317   1.083       .  S
C1314      H1318   1.083       .  S
C1319      C1324   1.402       .  A
C1319      H1325   1.083       .  S
C1320      C1321   1.403       .  A
C1321      C1322   1.399       .  A
C1321      H1326   1.083       .  S
C1322      C1323   1.409       .  A
C1322      H1327   1.083       .  S
C1324      H1328   1.083       .  S
C1329      C1330   1.219       .  T
C1331      C1332   1.214       .  T
C1333      C1338   1.403       .  A
C1333      H1339   1.083       .  S
C1334      C1335   1.403       .  A
C1335      C1336   1.399       .  A
C1335      H1340   1.083       .  S
C1336      C1337   1.408   1_556  A
C1336      H1613   1.083       .  S
C1338      H1342   1.083       .  S
H1341      C1608   1.083       .  S
C1343      C1348   1.396       .  A
C1343      H1349   1.083       .  S
C1344      C1345   1.409       .  A
C1345      C1618   1.398       .  A
C1345      H1622   1.083       .  S
C1346      C1617   1.404       .  A
C1346      C1619   1.407       .  A
C1346      H1351   1.083       .  S
C1347      C1618   1.403       .  A
C1348      H1352   1.083       .  S
H1350      C1617   1.083       .  S
C1353      C1626   1.220       .  T
C1354      C1625   1.216   1_554  T
C1355      C1628   1.219       .  T
C1356      C1627   1.216       .  T
O1361     Ni1367   1.952       .  S
O1362     Ni1385   1.891   1_554  S
O1363      H1386   0.966       .  S
C1364      O1381   1.272       .  A
C1364      O1373   1.275       .  A
C1364      C1631   1.409       .  S
O1365     Ni1384   1.916       .  S
O1366     Ni1384   1.919       .  S
O1366      C1368   1.266       .  A
Ni1367     O1370   1.946       .  S
Ni1367     O1372   1.939       .  S
C1368      O1378   1.271       .  A
C1368      C1628   1.457       .  S
O1369     Ni1385   1.896       .  S
O1369      C1375   1.257       .  A
O1370      C1375   1.273       .  A
C1371      C1616   1.492       .  S
O1372      C1374   1.276       .  A
O1373     Ni1384   1.910       .  S
C1374      O1380   1.270       .  A
C1374      C1625   1.452       .  S
C1375      C1630   1.431   1_655  S
H1376      O1377   0.966       .  S
O1378     Ni1379   1.943       .  S
Ni1379     O1383   1.899       .  S
Ni1379     O1381   1.897       .  S
O1380     Ni1385   1.924       .  S
C1382      C1606   1.493       .  S
O1387     Ni1393   1.909       .  S
O1387      C1408   1.269   1_655  A
O1388     Ni1411   1.908       .  S
O1389      H1412   0.966       .  S
O1389     Ni1405   1.886       .  S
C1390      O1407   1.253       .  A
C1390      O1399   1.266       .  A
C1390      C1629   1.431       .  S
O1391     Ni1410   1.950       .  S
O1391      C1397   1.280       .  A
O1392     Ni1410   1.931       .  S
O1392      C1394   1.279       .  A
Ni1393     O1396   1.909       .  S
Ni1393     O1398   1.921       .  S
C1394      O1404   1.284       .  A
C1394      C1604   1.461       .  S
O1395     Ni1411   1.907       .  S
O1395      C1401   1.276   1_455  A
O1396      C1401   1.276       .  A
C1397      C1592   1.495       .  S
O1398      C1400   1.267       .  A
O1399     Ni1410   1.911       .  S
C1400      O1406   1.276       .  A
C1400      C1602   1.467       .  S
C1401      C1632   1.417   1_655  S
H1402      O1403   0.964       .  S
O1403     Ni1411   1.902       .  S
O1404     Ni1405   1.962       .  S
Ni1405     O1409   1.925       .  S
Ni1405     O1407   1.909       .  S
O1406     Ni1411   1.959   1_655  S
C1408      C1582   1.479       .  S
O1413     Ni1419   1.950       .  S
O1414     Ni1437   1.898   1_554  S
O1414      C1423   1.270       .  A
O1415      H1438   0.965       .  S
O1415     Ni1419   1.921       .  S
O1415     Ni1437   1.927       .  S
C1416      O1433   1.276       .  A
C1416      O1425   1.276       .  A
C1416      C1580   1.414       .  S
O1417     Ni1436   1.910       .  S
O1418     Ni1436   1.921       .  S
O1418      C1420   1.267       .  A
Ni1419     O1422   1.938       .  S
Ni1419     O1424   1.928       .  S
C1420      O1430   1.273       .  A
C1420      C1626   1.459       .  S
O1421     Ni1437   1.899       .  S
O1421      C1427   1.259       .  A
O1422      C1427   1.272       .  A
C1423      C1571   1.491       .  S
O1424      C1426   1.273       .  A
O1425     Ni1436   1.908       .  S
C1426      O1432   1.275   1_556  A
C1426      C1627   1.453   1_556  S
C1427      C1578   1.433       .  S
H1428      O1429   0.966       .  S
O1429     Ni1431   1.892       .  S
O1429     Ni1436   1.891       .  S
O1430     Ni1431   1.947       .  S
Ni1431     O1435   1.911       .  S
Ni1431     O1433   1.906       .  S
O1432     Ni1437   1.938   1_554  S
C1434      O1435   1.271       .  A
C1434      C1561   1.493       .  S
O1439     Ni1445   1.916       .  S
O1439      C1460   1.271       .  A
O1440     Ni1463   1.897       .  S
O1440      C1449   1.267       .  A
O1441      H1464   0.966       .  S
O1441     Ni1445   1.898       .  S
O1441     Ni1463   1.889       .  S
O1441     Ni1457   1.882       .  S
C1442      O1459   1.252       .  A
C1442      O1451   1.266       .  A
C1442      C1577   1.432       .  S
O1443     Ni1462   1.951       .  S
O1443      C1449   1.279       .  A
O1444     Ni1462   1.929       .  S
O1444      C1446   1.277       .  A
Ni1445     O1448   1.911       .  S
Ni1445     O1450   1.922       .  S
C1446      O1456   1.286       .  A
C1446      C1601   1.467       .  S
O1447     Ni1463   1.902       .  S
O1447      C1453   1.274       .  A
O1448      C1453   1.276       .  A
C1449      C1548   1.491       .  S
O1450      C1452   1.267       .  A
O1451     Ni1462   1.919       .  S
C1452      O1458   1.272       .  A
C1452      C1603   1.462       .  S
C1453      C1579   1.414       .  S
H1454      O1455   0.965       .  S
O1455     Ni1463   1.902       .  S
O1455     Ni1457   1.951       .  S
O1455     Ni1462   1.925       .  S
O1456     Ni1457   1.968       .  S
Ni1457     O1461   1.909       .  S
Ni1457     O1459   1.904       .  S
O1458     Ni1463   1.947       .  S
C1460      O1461   1.273       .  A
C1460      C1541   1.472       .  S
O1465     Ni2017   1.933       .  S
O1466     Ni1473   1.930       .  S
O1466      C1476   1.284   1_554  A
O1467     Ni1473   1.942   1_556  S
O1467      C1477   1.285       .  A
O1468      C2022   1.283       .  A
O1469     Ni1474   1.929       .  S
O1471     Ni2018   1.912       .  S
O1472     Ni1474   1.928   1_545  S
Ni1473     O2009   1.927       .  S
Ni1474     O2015   1.924       .  S
C1476      C1619   1.487   1_556  S
C1477      C1529   1.500       .  S
C1478      O2012   1.282       .  A
C1478      C1533   1.502       .  S
O1479     Ni1487   1.918       .  S
O1479      C1489   1.281       .  A
O1480     Ni2031   1.904       .  S
O1480      C1490   1.277       .  A
O1481     Ni1487   1.936       .  S
O1481      C2035   1.285       .  A
O1482     Ni1487   1.941       .  S
O1482      C1492   1.286       .  A
O1483     Ni1488   1.941       .  S
O1484     Ni1488   1.942       .  S
O1485     Ni1488   1.923   1_545  S
O1486     Ni2032   1.924       .  S
Ni1487     O2024   1.913       .  S
Ni1488     O2030   1.929       .  S
C1489      C1595   1.492       .  S
C1491      O2025   1.288       .  A
C1491      C1530   1.494       .  S
C1492      C1534   1.499       .  S
O1493     Ni1501   1.946   1_545  S
O1493      C1503   1.287       .  A
O1494      C2048   1.287       .  A
O1495     Ni2045   1.911       .  S
O1496     Ni1501   1.917   1_545  S
O1496      C1506   1.281       .  A
O1497     Ni2046   1.931       .  S
O1498     Ni1502   1.934       .  S
O1498      C1505   1.285       .  A
O1499     Ni1502   1.934   1_556  S
O1499      C1504   1.283       .  A
O1500      C2047   1.286       .  A
Ni1501     O2039   1.908       .  S
Ni1501    Ni1774   2.383   1_565  S
Ni1502     O2041   1.939       .  S
Ni1502    Ni1773   2.382   1_554  S
C1503      O2044   1.283       .  A
C1503      C1525   1.502       .  S
C1504      O2038   1.287       .  A
C1504      C1521   1.503       .  S
C1505      C1568   1.488       .  S
C1506      C1558   1.491       .  S
O1507     Ni1515   1.923       .  S
O1507      C1517   1.281   1_565  A
O1508     Ni1515   1.928       .  S
O1508      C2062   1.282       .  A
O1509     Ni2059   1.937       .  S
O1509      C1519   1.286       .  A
O1510     Ni1515   1.924   1_545  S
O1510      C1520   1.284       .  A
O1511     Ni2060   1.899       .  S
O1511      C1520   1.277       .  A
O1512     Ni1516   1.912       .  S
O1512      C1519   1.279       .  A
O1513     Ni1516   1.953       .  S
O1513      C1518   1.289       .  A
O1514     Ni1516   1.952       .  S
O1514      C2061   1.288       .  A
Ni1515     O2053   1.928       .  S
Ni1515    Ni2060   2.384   1_565  S
Ni1516     O2055   1.912       .  S
Ni1516    Ni2059   2.382       .  S
C1517      O2058   1.287       .  A
C1517      C1522   1.494       .  S
C1518      O2052   1.283       .  A
C1518      C1526   1.508       .  S
C1519      C1551   1.490       .  S
C1520      C1538   1.475       .  S
C1521      C2066   1.353       .  D
C1521      H2067   1.086       .  S
C1522      C2065   1.356       .  D
C1522      H2068   1.086       .  S
H1523      C2065   1.086       .  S
H1524      C2066   1.086       .  S
C1525      C2070   1.352   1_545  D
C1525      H2071   1.086       .  S
C1526      C2069   1.360       .  D
C1526      H2072   1.086       .  S
H1527      C2069   1.086       .  S
H1528      C2070   1.086       .  S
C1529      C2074   1.354       .  D
C1530      C2073   1.357       .  D
C1530      H1532   1.086       .  S
C1533      C2078   1.351       .  D
C1533      H2079   1.086       .  S
C1534      C2077   1.353       .  D
H1535      C2077   1.086       .  S
C1537      C1538   1.408       .  A
C1537      C1542   1.394       .  A
C1537      H1543   1.083       .  S
C1538      C1539   1.402       .  A
C1539      C1540   1.395       .  A
C1539      H1544   1.083       .  S
C1540      C1541   1.407       .  A
C1540      H1545   1.083       .  S
C1541      C1542   1.401       .  A
C1542      H1546   1.083       .  S
C1547      C1548   1.405       .  A
C1547      C1552   1.402       .  A
C1547      H1553   1.083       .  S
C1548      C1549   1.410       .  A
C1549      C1550   1.401       .  A
C1549      H1554   1.083       .  S
C1550      C1551   1.404       .  A
C1550      H1555   1.083       .  S
C1551      C1552   1.410       .  A
C1552      H1556   1.083       .  S
C1557      C1558   1.408       .  A
C1557      C1562   1.401       .  A
C1558      C1559   1.406       .  A
C1559      C1560   1.405       .  A
C1559      H1564   1.083       .  S
C1560      C1561   1.410       .  A
C1560      H1565   1.083       .  S
C1561      C1562   1.406       .  A
C1567      C1572   1.393       .  A
C1567      H1573   1.083       .  S
C1568      C1569   1.405   1_554  A
C1569      C1570   1.395       .  A
C1569      H1574   1.083       .  S
C1570      C1571   1.407   1_556  A
C1570      H1575   1.083       .  S
C1572      H1576   1.083       .  S
C1577      C1578   1.205       .  T
C1579      C1580   1.195       .  T
C1581      C1586   1.400       .  A
C1581      H1587   1.083       .  S
C1582      C1583   1.408   1_455  A
C1583      C1584   1.395       .  A
C1583      H1588   1.083       .  S
C1584      C1585   1.402   1_655  A
C1584      H1589   1.083       .  S
C1586      H1590   1.083       .  S
C1591      C1596   1.401       .  A
C1591      H1597   1.083   1_455  S
C1592      C1593   1.406       .  A
C1593      C1594   1.402       .  A
C1593      H1598   1.083       .  S
C1594      C1595   1.409       .  A
C1594      H1599   1.083       .  S
C1596      H1600   1.083   1_455  S
C1601      C1602   1.225       .  T
C1603      C1604   1.222       .  T
C1605      C1610   1.400       .  A
C1605      H1611   1.083       .  S
C1606      C1607   1.409       .  A
C1607      C1608   1.405       .  A
C1607      H1612   1.083       .  S
C1608      C1609   1.408       .  A
C1610      H1614   1.083       .  S
C1615      C1620   1.395       .  A
C1615      H1621   1.083       .  S
C1616      C1617   1.408       .  A
C1618      H1623   1.083       .  S
C1620      H1624   1.083       .  S
O1633     Ni1639   1.953       .  S
O1633      C1926   1.283       .  A
O1634     Ni1657   1.893       .  S
O1635      H1658   0.964       .  S
O1635     Ni1923   1.884       .  S
C1636      O1653   1.274       .  A
C1636      O1645   1.275       .  A
C1636      C1903   1.410       .  S
O1637     Ni1656   1.908   1_556  S
O1637      C1915   1.269       .  A
O1638     Ni1656   1.922       .  S
O1638      C1640   1.267   1_554  A
Ni1639     O1642   1.946       .  S
Ni1639     O1644   1.937       .  S
C1640      O1650   1.271       .  A
C1640      C1900   1.457       .  S
O1641     Ni1657   1.895       .  S
O1641      C1647   1.261       .  A
O1642      C1647   1.277       .  A
C1643      O1909   1.280       .  A
C1643      C1888   1.484       .  S
O1644      C1646   1.274       .  A
O1645     Ni1656   1.905       .  S
C1646      O1652   1.271       .  A
C1646      C1897   1.450       .  S
C1647      C1902   1.434   1_655  S
H1648      O1649   0.966   1_554  S
O1649     Ni1929   1.889       .  S
O1650     Ni1651   1.943       .  S
Ni1651     O1655   1.905       .  S
Ni1651     O1653   1.903   1_556  S
Ni1651     O1907   1.898       .  S
O1652     Ni1657   1.926       .  S
C1654      O1905   1.278       .  A
C1654      C1878   1.489       .  S
Ni1657     O1921   1.884   1_655  S
O1659     Ni1665   1.915       .  S
O1659      C1680   1.271   1_655  A
O1660     Ni1683   1.909       .  S
O1661      H1684   0.966       .  S
O1661     Ni1677   1.887       .  S
C1662      O1679   1.255       .  A
C1662      O1671   1.268       .  A
C1662      C1901   1.435       .  S
O1663     Ni1682   1.950       .  S
O1663      C1669   1.280       .  A
O1664     Ni1682   1.930       .  S
O1664      C1666   1.277       .  A
Ni1665     O1668   1.912       .  S
Ni1665     O1670   1.925       .  S
C1666      O1676   1.287       .  A
C1666      C1876   1.469       .  S
O1667     Ni1683   1.908   1_655  S
O1667      C1673   1.276       .  A
O1668      C1673   1.276       .  A
C1669      C1864   1.495       .  S
O1670      C1672   1.268       .  A
O1671     Ni1682   1.917       .  S
C1672      O1678   1.274       .  A
C1672      C1874   1.465       .  S
C1673      C1904   1.420       .  S
H1674      O1675   0.964       .  S
O1675     Ni1683   1.904       .  S
O1676     Ni1677   1.971       .  S
Ni1677     O1681   1.920       .  S
Ni1677     O1679   1.908       .  S
O1678     Ni1683   1.951   1_655  S
C1680      C1854   1.479       .  S
O1685     Ni1691   1.953       .  S
O1685      C1978   1.282       .  A
O1686     Ni1709   1.895       .  S
O1686      C1695   1.269       .  A
O1687      H1710   0.965       .  S
O1687     Ni1691   1.915       .  S
O1687     Ni1709   1.916       .  S
O1687     Ni1975   1.887       .  S
C1688      O1705   1.273       .  A
C1688      O1697   1.276       .  A
C1688      C1852   1.416       .  S
O1689     Ni1708   1.917   1_556  S
O1689      C1967   1.271       .  A
O1690     Ni1708   1.924       .  S
O1690      C1692   1.268   1_554  A
Ni1691     O1694   1.944       .  S
Ni1691     O1696   1.937       .  S
C1692      O1702   1.272       .  A
C1692      C1898   1.462       .  S
O1693     Ni1709   1.894       .  S
O1693      C1699   1.259       .  A
O1694      C1699   1.274       .  A
C1695      O1961   1.280       .  A
C1695      C1843   1.488       .  S
O1696      C1698   1.275       .  A
O1697     Ni1708   1.913       .  S
C1698      O1704   1.271       .  A
C1698      C1899   1.451       .  S
C1699      C1850   1.432       .  S
H1700      O1701   0.966   1_554  S
O1701     Ni1981   1.884       .  S
O1701     Ni1703   1.893       .  S
O1701     Ni1708   1.897   1_556  S
O1702     Ni1703   1.946       .  S
Ni1703     O1707   1.902       .  S
Ni1703     O1705   1.901   1_556  S
Ni1703     O1959   1.900       .  S
O1704     Ni1709   1.927       .  S
C1706      O1957   1.280       .  A
C1706      O1707   1.268       .  A
C1706      C1833   1.495       .  S
Ni1709     O1973   1.887       .  S
O1711     Ni1717   1.915       .  S
O1711      C1732   1.271       .  A
O1712     Ni1735   1.917       .  S
O1712      C1721   1.273       .  A
O1713      H1736   0.966       .  S
O1713     Ni1717   1.896       .  S
O1713     Ni1735   1.896       .  S
O1713     Ni1729   1.890       .  S
C1714      O1731   1.256       .  A
C1714      O1723   1.266       .  A
C1714      C1849   1.431       .  S
O1715     Ni1734   1.945       .  S
O1715      C1721   1.278       .  A
O1716     Ni1734   1.930       .  S
O1716      C1718   1.276       .  A
Ni1717     O1720   1.910       .  S
Ni1717     O1722   1.925       .  S
C1718      O1728   1.282       .  A
C1718      C1873   1.465       .  S
O1719     Ni1735   1.907       .  S
O1719      C1725   1.276       .  A
O1720      C1725   1.276       .  A
C1721      C1820   1.493       .  S
O1722      C1724   1.268       .  A
O1723     Ni1734   1.919       .  S
C1724      O1730   1.277       .  A
C1724      C1875   1.469       .  S
C1725      C1851   1.417       .  S
H1726      O1727   0.965       .  S
O1727     Ni1735   1.900       .  S
O1727     Ni1729   1.953       .  S
O1727     Ni1734   1.927       .  S
O1728     Ni1729   1.961       .  S
Ni1729     O1733   1.921       .  S
Ni1729     O1731   1.909       .  S
O1730     Ni1735   1.958       .  S
C1732      O1733   1.274       .  A
C1732      C1813   1.480       .  S
O1737      C2019   1.285       .  A
O1738     Ni1745   1.937   1_565  S
O1738      C1748   1.286       .  A
O1739     Ni1745   1.932       .  S
O1739      C1749   1.283   1_545  A
O1740     Ni2017   1.924       .  S
O1741     Ni1746   1.933   1_554  S
O1742     Ni2018   1.933       .  S
O1744     Ni1746   1.925       .  S
Ni1745     O2012   1.929       .  S
Ni1746     O2014   1.931       .  S
C1747      O2009   1.284   1_556  A
C1748      C1891   1.485       .  S
C1749      C1801   1.500       .  S
C1750      C1805   1.500       .  S
O1751     Ni1759   1.919   1_565  S
O1751      C1761   1.281       .  A
O1752      C1762   1.277       .  A
O1753     Ni1759   1.937       .  S
O1754     Ni1759   1.944   1_565  S
O1754      C1764   1.287       .  A
O1755     Ni1760   1.951       .  S
O1756     Ni1760   1.948       .  S
O1757     Ni1760   1.917       .  S
C1761      C1867   1.492       .  S
C1763      C1802   1.492       .  S
C1764      C1806   1.499       .  S
O1765     Ni1773   1.949   1_554  S
O1765      C1775   1.288       .  A
O1766     Ni2045   1.932       .  S
O1767      C2049   1.277       .  A
O1768     Ni1773   1.914       .  S
O1768      C1778   1.280       .  A
O1769      C2050   1.285       .  A
O1770     Ni1774   1.936   1_565  S
O1770      C1777   1.285       .  A
O1771     Ni1774   1.933       .  S
O1771      C1776   1.283   1_545  A
O1772     Ni2046   1.924       .  S
Ni1773     O2038   1.947       .  S
Ni1774     O2044   1.931       .  S
C1775      C1797   1.504       .  S
C1776      C1793   1.495       .  S
C1777      O2039   1.280       .  A
C1777      C1840   1.487       .  S
C1778      O2041   1.287   1_556  A
C1778      C1830   1.491       .  S
O1779     Ni1787   1.943       .  S
O1779      C1789   1.286       .  A
O1780     Ni1787   1.950       .  S
O1781      C1791   1.285       .  A
O1782     Ni1787   1.920       .  S
O1782      C1792   1.283       .  A
O1783      C1792   1.280       .  A
O1784     Ni1788   1.919   1_565  S
O1784      C1791   1.282       .  A
O1785     Ni1788   1.942   1_565  S
O1785      C1790   1.286       .  A
O1786     Ni1788   1.936       .  S
C1789      C1794   1.496       .  S
C1790      C1798   1.499       .  S
C1791      C1823   1.493       .  S
C1792      C1810   1.481       .  S
C1802      H1804   1.086       .  S
C1809      C1810   1.408       .  A
C1809      C1814   1.400       .  A
C1809      H1815   1.083       .  S
C1810      C1811   1.404       .  A
C1811      C1812   1.396       .  A
C1811      H1816   1.083       .  S
C1812      C1813   1.406       .  A
C1812      H1817   1.083       .  S
C1813      C1814   1.404       .  A
C1814      H1818   1.083       .  S
C1819      C1820   1.406       .  A
C1819      C1824   1.401       .  A
C1819      H1825   1.083       .  S
C1820      C1821   1.409       .  A
C1821      C1822   1.406       .  A
C1821      H1826   1.083       .  S
C1822      C1823   1.407       .  A
C1822      H1827   1.083       .  S
C1823      C1824   1.408       .  A
C1824      H1828   1.083       .  S
C1829      C1830   1.410       .  A
C1829      C1834   1.403       .  A
C1829      H2107   1.083       .  S
C1830      C1831   1.404   1_556  A
C1831      C1832   1.403       .  A
C1831      H1836   1.083       .  S
C1832      C1833   1.411   1_554  A
C1832      H1837   1.083       .  S
C1833      C1834   1.406       .  A
C1834      H2110   1.083       .  S
H1835      C2101   1.083       .  S
H1838      C2106   1.083       .  S
C1839      C2112   1.401       .  A
C1839      C1844   1.395       .  A
C1839      H1845   1.083       .  S
C1840      C2111   1.407       .  A
C1840      C1841   1.406       .  A
C1841      C1842   1.396       .  A
C1841      H1846   1.083       .  S
C1842      C1843   1.406       .  A
C1842      H1847   1.083       .  S
C1843      C2116   1.408       .  A
C1844      C2115   1.408       .  A
C1844      H1848   1.083       .  S
C1849      C1850   1.204       .  T
C1851      C1852   1.197       .  T
C1853      C1858   1.395       .  A
C1853      H1859   1.083       .  S
C1854      C1855   1.406   1_455  A
C1855      C1856   1.396       .  A
C1855      H1860   1.083       .  S
C1856      C1857   1.405   1_655  A
C1856      H1861   1.083       .  S
C1858      H1862   1.083       .  S
C1863      C1868   1.403       .  A
C1863      H1869   1.083       .  S
C1864      C1865   1.407       .  A
C1865      C1866   1.402       .  A
C1865      H1870   1.083       .  S
C1866      C1867   1.408       .  A
C1866      H1871   1.083       .  S
C1868      H1872   1.083       .  S
C1873      C1874   1.224       .  T
C1875      C1876   1.226       .  T
C1877      C1882   1.402   1_556  A
C1877      H1883   1.083       .  S
C1878      C1879   1.406       .  A
C1879      C1880   1.403       .  A
C1879      H1884   1.083       .  S
C1880      C1881   1.408       .  A
C1880      H2157   1.083       .  S
C1882      H1886   1.083       .  S
H1885      C2152   1.083       .  S
C1887      C1892   1.396       .  A
C1887      H1893   1.083       .  S
C1888      C1889   1.408       .  A
C1889      C2162   1.405       .  A
C1889      H2166   1.083       .  S
C1890      C2161   1.395       .  A
C1890      C2163   1.400       .  A
C1890      H1895   1.083   1_556  S
C1891      C2162   1.406       .  A
C1892      H1896   1.083       .  S
H1894      C2161   1.083       .  S
C1897      C2170   1.214       .  T
C1898      C2169   1.222       .  T
C1899      C2172   1.215       .  T
C1900      C2171   1.219       .  T
O1905     Ni1911   1.947       .  S
O1906     Ni1929   1.914       .  S
O1907      H1930   0.965       .  S
C1908      O1925   1.259       .  A
C1908      O1917   1.274       .  A
C1908      C2175   1.433       .  S
O1909     Ni1928   1.950       .  S
O1910     Ni1928   1.930       .  S
O1910      C1912   1.274       .  A
Ni1911     O1914   1.919       .  S
Ni1911     O1916   1.929       .  S
C1912      O1922   1.273       .  A
C1912      C2172   1.451       .  S
O1913     Ni1929   1.909       .  S
O1913      C1919   1.254       .  A
O1914      C1919   1.266       .  A
C1915      C2160   1.480       .  S
O1916      C1918   1.277       .  A
O1917     Ni1928   1.941       .  S
C1918      O1924   1.282       .  A
C1918      C2169   1.462       .  S
C1919      C2174   1.431       .  S
H1920      O1921   0.965   1_655  S
O1922     Ni1923   1.934       .  S
Ni1923     O1927   1.898       .  S
Ni1923     O1925   1.898       .  S
O1924     Ni1929   1.957       .  S
C1926      C2150   1.491       .  S
O1931     Ni1937   1.964       .  S
O1931      C1952   1.283       .  A
O1932     Ni1955   1.900       .  S
O1933      H1956   0.965       .  S
O1933     Ni1949   1.888       .  S
C1934      O1951   1.259       .  A
C1934      O1943   1.275       .  A
C1934      C2173   1.429       .  S
O1935     Ni1954   1.956       .  S
O1935      C1941   1.282       .  A
O1936     Ni1954   1.931       .  S
O1936      C1938   1.274       .  A
Ni1937     O1940   1.932       .  S
Ni1937     O1942   1.931       .  S
C1938      O1948   1.274       .  A
C1938      C2148   1.452       .  S
O1939     Ni1955   1.904       .  S
O1939      C1945   1.258       .  A
O1940      C1945   1.274       .  A
C1941      C2136   1.490       .  S
O1942      C1944   1.276       .  A
O1943     Ni1954   1.943       .  S
C1944      O1950   1.278       .  A
C1944      C2146   1.457       .  S
C1945      C2176   1.434       .  S
H1946      O1947   0.965       .  S
O1947     Ni1955   1.887       .  S
O1948     Ni1949   1.934       .  S
Ni1949     O1953   1.901       .  S
Ni1949     O1951   1.893       .  S
O1950     Ni1955   1.949       .  S
C1952      C2126   1.494       .  S
O1957     Ni1963   1.951       .  S
O1958     Ni1981   1.916       .  S
O1958      C1967   1.274       .  A
O1959      H1982   0.964       .  S
O1959     Ni1963   1.926       .  S
O1959     Ni1981   1.960       .  S
C1960      O1977   1.260       .  A
C1960      O1969   1.273       .  A
C1960      C2124   1.432       .  S
O1961     Ni1980   1.955       .  S
O1962     Ni1980   1.924       .  S
O1962      C1964   1.273       .  A
Ni1963     O1966   1.911       .  S
Ni1963     O1968   1.927       .  S
C1964      O1974   1.274       .  A
C1964      C2170   1.449       .  S
O1965     Ni1981   1.911       .  S
O1965      C1971   1.252       .  A
O1966      C1971   1.265       .  A
C1967      C2115   1.478       .  S
O1968      C1970   1.278       .  A
O1969     Ni1980   1.933       .  S
C1970      O1976   1.284       .  A
C1970      C2171   1.457       .  S
C1971      C2122   1.428       .  S
H1972      O1973   0.966       .  S
O1973     Ni1975   1.932       .  S
O1973     Ni1980   1.911       .  S
O1974     Ni1975   1.938       .  S
Ni1975     O1979   1.901       .  S
Ni1975     O1977   1.901       .  S
O1976     Ni1981   1.959       .  S
C1978      O1979   1.269       .  A
C1978      C2105   1.487       .  S
O1983     Ni1989   1.952       .  S
O1983      C2004   1.279       .  A
O1984     Ni2007   1.905       .  S
O1984      C1993   1.270       .  A
O1985      H2008   0.965       .  S
O1985     Ni1989   1.914       .  S
O1985     Ni2007   1.935       .  S
O1985     Ni2001   1.887       .  S
C1986      O2003   1.256       .  A
C1986      O1995   1.272       .  A
C1986      C2121   1.432       .  S
O1987     Ni2006   1.952       .  S
O1987      C1993   1.281       .  A
O1988     Ni2006   1.935       .  S
O1988      C1990   1.276       .  A
Ni1989     O1992   1.930       .  S
Ni1989     O1994   1.923       .  S
C1990      O2000   1.275       .  A
C1990      C2145   1.457       .  S
O1991     Ni2007   1.902       .  S
O1991      C1997   1.259       .  A
O1992      C1997   1.272       .  A
C1993      C2092   1.487       .  S
O1994      C1996   1.273       .  A
O1995     Ni2006   1.943       .  S
C1996      O2002   1.277       .  A
C1996      C2147   1.452       .  S
C1997      C2123   1.432       .  S
H1998      O1999   0.964       .  S
O1999     Ni2007   1.888       .  S
O1999     Ni2001   1.930       .  S
O1999     Ni2006   1.922       .  S
O2000     Ni2001   1.937       .  S
Ni2001     O2005   1.903       .  S
Ni2001     O2003   1.896       .  S
O2002     Ni2007   1.946       .  S
C2004      O2005   1.271       .  A
C2004      C2085   1.490       .  S
O2010     Ni2017   1.928   1_566  S
O2010      C2020   1.285       .  A
O2011     Ni2017   1.923   1_556  S
O2011      C2021   1.280       .  A
O2013     Ni2018   1.935       .  S
O2016     Ni2018   1.919       .  S
C2020      C2163   1.479       .  S
C2021      C2073   1.492       .  S
C2022      C2077   1.498       .  S
O2023     Ni2031   1.915   1_565  S
O2023      C2033   1.280       .  A
O2024      C2034   1.281       .  A
O2025     Ni2031   1.947       .  S
O2026     Ni2031   1.957       .  S
O2026      C2036   1.290       .  A
O2027     Ni2032   1.951       .  S
O2028     Ni2032   1.954       .  S
O2029     Ni2032   1.927       .  S
C2033      C2139   1.490       .  S
C2035      C2074   1.500       .  S
C2036      C2078   1.500       .  S
O2037     Ni2045   1.937       .  S
O2037      C2047   1.286       .  A
O2040     Ni2045   1.914       .  S
O2040      C2050   1.281       .  A
O2042     Ni2046   1.928   1_566  S
O2042      C2049   1.285       .  A
O2043     Ni2046   1.924   1_556  S
O2043      C2048   1.281       .  A
C2047      C2069   1.505       .  S
C2048      C2065   1.493       .  S
C2049      C2112   1.478       .  S
C2050      C2102   1.489       .  S
O2051     Ni2059   1.929       .  S
O2051      C2061   1.282       .  A
O2052     Ni2059   1.933       .  S
O2053      C2063   1.285       .  A
O2054     Ni2059   1.933       .  S
O2054      C2064   1.285       .  A
O2055      C2064   1.281       .  A
O2056     Ni2060   1.913   1_565  S
O2056      C2063   1.280       .  A
O2057     Ni2060   1.952       .  S
O2057      C2062   1.288   1_545  A
O2058     Ni2060   1.943       .  S
C2061      C2066   1.502       .  S
C2062      C2070   1.501       .  S
C2063      C2095   1.487       .  S
C2064      C2082   1.489       .  S
C2074      H2076   1.086       .  S
C2081      C2082   1.407       .  A
C2081      C2086   1.398       .  A
C2081      H2087   1.083       .  S
C2082      C2083   1.407       .  A
C2083      C2084   1.405       .  A
C2083      H2088   1.083       .  S
C2084      C2085   1.409       .  A
C2084      H2089   1.083       .  S
C2085      C2086   1.406       .  A
C2086      H2090   1.083       .  S
C2091      C2092   1.405       .  A
C2091      C2096   1.400       .  A
C2091      H2097   1.083       .  S
C2092      C2093   1.408       .  A
C2093      C2094   1.402       .  A
C2093      H2098   1.083       .  S
C2094      C2095   1.405       .  A
C2094      H2099   1.083       .  S
C2095      C2096   1.409       .  A
C2096      H2100   1.083       .  S
C2101      C2102   1.409       .  A
C2101      C2106   1.400       .  A
C2102      C2103   1.406       .  A
C2103      C2104   1.402       .  A
C2103      H2108   1.083       .  S
C2104      C2105   1.410       .  A
C2104      H2109   1.083       .  S
C2105      C2106   1.403       .  A
C2111      C2116   1.405       .  A
C2111      H2117   1.083       .  S
C2112      C2113   1.409       .  A
C2113      C2114   1.398       .  A
C2113      H2118   1.083       .  S
C2114      C2115   1.402       .  A
C2114      H2119   1.083       .  S
C2116      H2120   1.083       .  S
C2121      C2122   1.203       .  T
C2123      C2124   1.204       .  T
C2125      C2130   1.397       .  A
C2125      H2131   1.083       .  S
C2126      C2127   1.408       .  A
C2127      C2128   1.408       .  A
C2127      H2132   1.083       .  S
C2128      C2129   1.410       .  A
C2128      H2133   1.083       .  S
C2130      H2134   1.083       .  S
C2135      C2140   1.400       .  A
C2135      H2141   1.083       .  S
C2136      C2137   1.405       .  A
C2137      C2138   1.403       .  A
C2137      H2142   1.083       .  S
C2138      C2139   1.410       .  A
C2138      H2143   1.083       .  S
C2140      H2144   1.083       .  S
C2145      C2146   1.219       .  T
C2147      C2148   1.216       .  T
C2149      C2154   1.401       .  A
C2149      H2155   1.083       .  S
C2150      C2151   1.406       .  A
C2151      C2152   1.402       .  A
C2151      H2156   1.083       .  S
C2152      C2153   1.408       .  A
C2154      H2158   1.083       .  S
C2159      C2164   1.398       .  A
C2159      H2165   1.083       .  S
C2160      C2161   1.409       .  A
C2162      H2167   1.083       .  S
C2164      H2168   1.083       .  S
