geometry optimzed in LAMMPS
_audit_creation_date              2020-11-30 
_audit_creation_method            'lammps2cif' 
_symmetry_space_group_name_H-M    'P1' 
_symmetry_Int_Tables_number       1 
_symmetry_cell_setting            triclinic 
loop_ 
_symmetry_equiv_pos_as_xyz 
  x,y,z 
_cell_length_a                    33.3844954 
_cell_length_b                    56.62571350756029 
_cell_length_c                    23.925627585912878 
_cell_angle_alpha                 89.23353895491792 
_cell_angle_beta                  89.8330532699316 
_cell_angle_gamma                 89.99646851983877 
loop_ 
_atom_site_label 
_atom_site_type_symbol 
_atom_site_fract_x 
_atom_site_fract_y 
_atom_site_fract_z 
_atom_site_charge 
N1          N  0.50611645  0.46568062  0.97538645    -0.36700
N2          N  0.44289772  0.50109253  0.96741765    -0.57200
N3          N  0.50364055  0.53684436  0.98089370    -0.36700
N4          N  0.56740790  0.50154980  0.98420052    -0.57200
C5          C  0.47491735  0.45240392  0.95816123     0.26900
C6          C  0.53961812  0.45247263  0.96943569     0.26900
C7          C  0.47125359  0.55043390  0.96921967     0.26900
C8          C  0.53641181  0.55072519  0.97519177     0.26900
C9          C  0.41975751  0.48159842  0.96994573     0.35500
C10         C  0.41838250  0.51961615  0.97629768     0.35500
C11         C  0.59048465  0.48248914  0.99558701     0.35500
C12         C  0.58939390  0.52078041  0.99659031     0.35500
C13         C  0.48876537  0.43054367  0.94116801    -0.22000
C14         C  0.52939211  0.43051488  0.94859845    -0.22000
C15         C  0.48363133  0.57321992  0.95610672    -0.22000
C16         C  0.52459502  0.57338480  0.95958784    -0.22000
C17         C  0.38012627  0.48773523  0.97915297    -0.23000
C18         C  0.37925880  0.51192563  0.98330502    -0.23000
C19         C  0.62777659  0.48961668  0.01419913    -0.23000
C20         C  0.62709788  0.51396180  0.01480736    -0.23000
C21         C  0.43388805  0.45847183  0.96193592    -0.18400
C22         C  0.57874416  0.45890854  0.98624786    -0.18400
C23         C  0.57622080  0.54433394  0.98935272    -0.18400
C24         C  0.43072138  0.54340017  0.97479976    -0.18400
H25         H  0.47130324  0.41583997  0.92614043     0.14500
H26         H  0.54888721  0.41571306  0.94031544     0.14500
H27         H  0.46518311  0.58840422  0.94625710     0.14500
H28         H  0.54335043  0.58876055  0.95305023     0.14500
H29         H  0.35458086  0.47602439  0.98243869     0.12800
H30         H  0.35286648  0.52262295  0.99009906     0.12800
H31         H  0.65285677  0.47846741  0.02565764     0.12800
H32         H  0.65154100  0.52532793  0.02698751     0.12800
H33         H  0.50403106  0.48137992  0.99698215     0.26100
H34         H  0.50302222  0.52021250  0.99946714     0.26100
N35         N  0.99891376  0.96284649  0.95814381    -0.36700
N36         N  0.05934935  0.99926192  0.96201996    -0.57200
N37         N  0.99539521  0.03327167  0.94648881    -0.36700
N38         N  0.93489594  0.99664271  0.93822770    -0.57200
C39         C  0.03286144  0.95007849  0.95215783     0.26900
C40         C  0.96819081  0.94886655  0.94271334     0.26900
C41         C  0.02790648  0.04749641  0.94257833     0.26900
C42         C  0.96345919  0.04594741  0.92846235     0.26900
C43         C  0.08212869  0.98070539  0.97816960     0.35500
C44         C  0.07978234  0.01893232  0.97544357     0.35500
C45         C  0.91240622  0.97742140  0.95019135     0.35500
C46         C  0.91044933  0.01551631  0.94235349     0.35500
C47         C  0.02359096  0.92791750  0.93177874    -0.22000
C48         C  0.98274260  0.92713462  0.92598033    -0.22000
C49         C  0.01638028  0.06940632  0.92141163    -0.22000
C50         C  0.97596113  0.06838152  0.91227936    -0.22000
C51         C  0.11778797  0.98854432  0.00079999    -0.23000
C52         C  0.11630449  0.01286629  0.99908974    -0.23000
C53         C  0.87310668  0.98398888  0.96042087    -0.23000
C54         C  0.87182665  0.00824430  0.95518330    -0.23000
C55         C  0.07130619  0.95690056  0.97051937    -0.18400
C56         C  0.92721966  0.95411833  0.95024023    -0.18400
C57         C  0.92281327  0.03909537  0.93375521    -0.18400
C58         C  0.06657480  0.04215266  0.96361616    -0.18400
H59         H  0.04403287  0.91351653  0.92366100     0.14500
H60         H  0.96553321  0.91203269  0.91261557     0.14500
H61         H  0.03457951  0.08498957  0.91499026     0.14500
H62         H  0.95769382  0.08298732  0.89776892     0.14500
H63         H  0.14223325  0.97788152  0.01672163     0.12800
H64         H  0.13952654  0.02469443  0.01319862     0.12800
H65         H  0.84810218  0.97255463  0.97069930     0.12800
H66         H  0.84566382  0.01926277  0.96075515     0.12800
H67         H  0.99615867  0.97849691  0.97996847     0.26100
H68         H  0.99405069  0.01739026  0.96839875     0.26100
O69         O  0.18742134  0.23080197  0.99576756    -0.88400
C70         C  0.29504762  0.22470767  0.07043312     0.87600
Mg71       Mg  0.17781005  0.22259623  0.90991609     1.58100
O72         O  0.26423070  0.28254582  0.04093677    -0.88100
O73         O  0.17852936  0.26038528  0.05270907    -0.75500
C74         C  0.32711963  0.27635216  0.77262487     0.92700
O75         O  0.25739391  0.19445456  0.97121104    -0.75300
O76         O  0.30567615  0.25782732  0.76777332    -0.82800
Mg77       Mg  0.21729311  0.20471286  0.04582709     1.58000
C78         C  0.33735665  0.33128826  0.96845308     0.92600
O79         O  0.17622198  0.21234251  0.12237025    -0.81100
H80         H  0.22237305  0.30762318  0.04711333    -0.06400
C81         C  0.33936884  0.25383035  0.92504280     0.87500
O82         O  0.18148958  0.26165494  0.88493483    -0.75600
O83         O  0.25952123  0.23098009  0.06954358    -0.88300
O84         O  0.33609475  0.31689729  0.00979397    -0.81100
C85         C  0.32504216  0.27650954  0.16602944     0.92700
C86         C  0.17537748  0.22530385  0.16572943     0.92600
Mg87       Mg  0.28582716  0.29538818  0.89416128     1.58000
O88         O  0.32496598  0.28951658  0.81547286    -0.81100
O89         O  0.24609394  0.30483397  0.96934340    -0.75300
O90         O  0.29099321  0.26604446  0.16591930    -0.81100
O91         O  0.17537485  0.17527864  0.02000899    -0.82900
O92         O  0.21633874  0.23243728  0.77334556    -0.81200
C93         C  0.24384122  0.29880108  0.02068470     0.87000
O94         O  0.24526876  0.26856596  0.87000059    -0.88300
O95         O  0.31768393  0.26956664  0.94388722    -0.88400
O96         O  0.32716168  0.23975832  0.88784871    -0.75500
Mg97       Mg  0.23576554  0.26242500  0.10592000     1.58000
O98         O  0.34012531  0.28530121  0.12145532    -0.82900
H99         H  0.13643068  0.24930911  0.99790149    -0.06600
O100        O  0.24113267  0.21723381  0.89942683    -0.88100
H101        H  0.28201752  0.19155156  0.89393862    -0.06400
H102        H  0.20304837  0.29285772  0.85517639    -0.06600
C103        C  0.26064251  0.20064526  0.91999268     0.87000
C104        C  0.16609202  0.24665778  0.01488043     0.87600
C105        C  0.20985755  0.27498224  0.86844637     0.87600
H106        H  0.36910469  0.25149435  0.94201884    -0.06600
O107        O  0.32328277  0.23843230  0.05510330    -0.75600
Mg108      Mg  0.27041026  0.23708648  0.83430812     1.58000
H109        H  0.30215851  0.20675660  0.08275265    -0.06600
C110        C  0.16637137  0.16894523  0.97076916     0.92600
O111        O  0.16482135  0.21597728  0.81920015    -0.82800
C112        C  0.18126353  0.22331871  0.77422023     0.92600
O113        O  0.20063291  0.24194444  0.17256651    -0.82800
Mg114      Mg  0.32730996  0.27770327  0.03015119     1.58200
O115        O  0.16923787  0.18308039  0.92905695    -0.81100
O116        O  0.32615858  0.32538035  0.91982029    -0.82800
O117        O  0.68863923  0.26937895  0.93817032    -0.88400
C118        C  0.80058319  0.26944492  0.87251544     0.87600
Mg119      Mg  0.67732634  0.28096739  0.02176294     1.58100
O120        O  0.76489295  0.21322081  0.90833148    -0.88100
O121        O  0.68105847  0.23741701  0.88825666    -0.75500
C122        C  0.81839512  0.22676742  0.17574575     0.92700
O123        O  0.76113986  0.30435151  0.96072445    -0.75300
O124        O  0.79764484  0.24570808  0.17652321    -0.82800
Mg125      Mg  0.72340171  0.29234389  0.88550709     1.58000
C126        C  0.83186916  0.16475075  0.99250336     0.92600
O127        O  0.68497130  0.28345257  0.80580227    -0.81100
H128        H  0.72247200  0.18851077  0.90176892    -0.06400
C129        C  0.83746066  0.24362670  0.02172199     0.87500
O130        O  0.67729829  0.24249992  0.05369555    -0.75600
O131        O  0.76458467  0.26410826  0.87231164    -0.88300
O132        O  0.83312795  0.17724469  0.94768737    -0.81100
C133        C  0.83029655  0.21632448  0.78586029     0.92700
C134        C  0.68747528  0.26895906  0.76531063     0.92600
Mg135      Mg  0.77973172  0.20458941  0.05614203     1.58000
O136        O  0.81655960  0.21237665  0.13522778    -0.81100
O137        O  0.74227444  0.19314732  0.98093036    -0.75300
O138        O  0.79632925  0.22663914  0.78613048    -0.81100
O139        O  0.68349852  0.32364380  0.90178410    -0.82900
O140        O  0.71069788  0.27333604  0.16098220    -0.81200
C141        C  0.74290094  0.19775350  0.92879328     0.87000
O142        O  0.73992148  0.23342656  0.07207185    -0.88300
O143        O  0.81592164  0.22749862  0.00452236    -0.88400
O144        O  0.82441592  0.25924265  0.05485804    -0.75500
Mg145      Mg  0.74012886  0.23235612  0.83986363     1.58000
O146        O  0.84459541  0.20683807  0.83014324    -0.82900
H147        H  0.63719063  0.25131110  0.93669739    -0.06600
O148        O  0.74074423  0.28420601  0.03469944    -0.88100
H149        H  0.78298063  0.30915665  0.03886013    -0.06400
H150        H  0.69468335  0.21114959  0.08776934    -0.06600
C151        C  0.76210006  0.29970136  0.01293146     0.87000
C152        C  0.66758985  0.25292651  0.92142567     0.87600
C153        C  0.70381439  0.22840258  0.07260881     0.87600
H154        H  0.86793384  0.24494597  0.00658535    -0.06600
O155        O  0.82740302  0.25530352  0.89046672    -0.75600
Mg156      Mg  0.76624889  0.26525173  0.10432570     1.58000
H157        H  0.80936979  0.28693243  0.85855276    -0.06600
C158        C  0.67323879  0.33266746  0.94814132     0.92600
O159        O  0.66238038  0.29096911  0.11112609    -0.82800
C160        C  0.67688464  0.28391754  0.15762315     0.92600
O161        O  0.71138887  0.25147476  0.76719049    -0.82800
Mg162      Mg  0.82823096  0.21651801  0.92065075     1.58200
O163        O  0.67290973  0.32050907  0.99359290    -0.81100
O164        O  0.81941304  0.17306212  0.03862824    -0.82800
O165        O  0.67985965  0.73296675  0.07742190    -0.88400
C166        C  0.79061079  0.72639462  0.14507949     0.87600
Mg167      Mg  0.66650819  0.72193714  0.99417797     1.58100
O168        O  0.76471776  0.78413791  0.10522342    -0.88100
O169        O  0.67705211  0.76523005  0.12706975    -0.75500
C170        C  0.81511762  0.76460266  0.83595442     0.92700
O171        O  0.74577131  0.69363576  0.05559603    -0.75300
O172        O  0.78928822  0.74802848  0.83711651    -0.82800
Mg173      Mg  0.71005519  0.70799501  0.13045621     1.58000
C174        C  0.83994537  0.82692120  0.01661982     0.92600
O175        O  0.67378073  0.71915123  0.20990110    -0.81100
H176        H  0.72628620  0.81116594  0.10846310    -0.06400
C177        C  0.83181394  0.74791718  0.99279481     0.87500
O178        O  0.67297223  0.75997572  0.96121422    -0.75600
O179        O  0.75570534  0.73378035  0.14399595    -0.88300
O180        O  0.83925296  0.81507118  0.06243550    -0.81100
C181        C  0.82863035  0.77939784  0.22869055     0.92700
C182        C  0.67816091  0.73350122  0.25029790     0.92600
Mg183      Mg  0.78219004  0.78983088  0.95571639     1.58000
O184        O  0.81889665  0.77881521  0.87670878    -0.81100
O185        O  0.74646403  0.80427355  0.03028530    -0.75300
O186        O  0.79342766  0.77053860  0.22972756    -0.81100
O187        O  0.66468894  0.67905829  0.11429428    -0.82900
O188        O  0.70065696  0.72587993  0.85470350    -0.81200
C189        C  0.74553216  0.80040419  0.08280185     0.87000
O190        O  0.73687906  0.76413772  0.94140555    -0.88300
O191        O  0.81327395  0.76536655  0.00963677    -0.88400
O192        O  0.81622230  0.73332987  0.95925361    -0.75500
Mg193      Mg  0.73656817  0.76712691  0.17515036     1.58000
O194        O  0.84425670  0.78701835  0.18313716    -0.82900
H195        H  0.63131006  0.75364190  0.07891993    -0.06600
O196        O  0.72884340  0.71446444  0.98111422    -0.88100
H197        H  0.76672560  0.68717065  0.97756939    -0.06400
H198        H  0.69664123  0.78943079  0.92496042    -0.06600
C199        C  0.74748698  0.69791882  0.00327302     0.87000
C200        C  0.66132604  0.75045946  0.09410121     0.87600
C201        C  0.70211508  0.77178217  0.94096437     0.87600
H202        H  0.86178120  0.74466726  0.00808266    -0.06600
O203        O  0.81981191  0.73868175  0.12660354    -0.75600
Mg204      Mg  0.75694331  0.73085063  0.91051180     1.58000
H205        H  0.79629922  0.70871150  0.16070506    -0.06600
C206        C  0.65497490  0.67083473  0.06693650     0.92600
O207        O  0.64920194  0.71239065  0.90555218    -0.82800
C208        C  0.66507201  0.71773478  0.85864748     0.92600
O209        O  0.70420776  0.74993698  0.24830136    -0.82800
Mg210      Mg  0.82720063  0.77676829  0.09308090     1.58200
O211        O  0.65698428  0.68330159  0.02222568    -0.81100
O212        O  0.82652414  0.81865836  0.97121967    -0.82800
O213        O  0.18494156  0.76887075  0.01245251    -0.88400
C214        C  0.29622509  0.76744228  0.94353943     0.87600
Mg215      Mg  0.17383976  0.77867439  0.09728529     1.58100
O216        O  0.25579243  0.71219408  0.97880428    -0.88100
O217        O  0.17405789  0.73834438  0.95907762    -0.75500
C218        C  0.31671518  0.72278938  0.24460805     0.92700
O219        O  0.25936752  0.80262428  0.03760108    -0.75300
O220        O  0.29650863  0.74189961  0.24630832    -0.82800
Mg221      Mg  0.22117903  0.79239374  0.96203663     1.58000
C222        C  0.32125733  0.66108632  0.05906059     0.92600
O223        O  0.18340822  0.78596603  0.88224947    -0.81100
H224        H  0.21127504  0.68869745  0.97372592    -0.06400
C225        C  0.33243031  0.74037495  0.09077388     0.87500
O226        O  0.17410772  0.73999337  0.12625131    -0.75600
O227        O  0.25980685  0.76329366  0.94421475    -0.88300
O228        O  0.32118243  0.67443794  0.01582343    -0.81100
C229        C  0.31987814  0.71206267  0.85642785     0.92700
C230        C  0.18142734  0.77200675  0.84083298     0.92600
Mg231      Mg  0.27428306  0.70141728  0.12660554     1.58000
O232        O  0.31347769  0.70833117  0.20433794    -0.81100
O233        O  0.23444226  0.69167162  0.05167617    -0.75300
O234        O  0.28875106  0.72523224  0.85326314    -0.81100
O235        O  0.18254770  0.82407658  0.98227237    -0.82900
O236        O  0.20972478  0.76965672  0.23538103    -0.81200
C237        C  0.23329930  0.69709451  0.99987375     0.87000
O238        O  0.23650026  0.73063329  0.14468710    -0.88300
O239        O  0.30990087  0.72450706  0.07464358    -0.88400
O240        O  0.32077774  0.75612668  0.12452723    -0.75500
Mg241      Mg  0.23230136  0.73238914  0.90978690     1.58000
O242        O  0.33095162  0.70256667  0.90220902    -0.82900
H243        H  0.13171460  0.75277834  0.00914743    -0.06600
O244        O  0.23744090  0.78197843  0.10977866    -0.88100
H245        H  0.28024673  0.80643909  0.11647791    -0.06400
H246        H  0.19106513  0.70841388  0.15929105    -0.06600
C247        C  0.25933225  0.79754121  0.08951223     0.87000
C248        C  0.16220869  0.75361266  0.99391604     0.87600
C249        C  0.20037861  0.72575780  0.14498295     0.87600
H250        H  0.36250021  0.74138454  0.07401193    -0.06600
O251        O  0.32181918  0.75233494  0.96049804    -0.75600
Mg252      Mg  0.26393813  0.76208365  0.17676752     1.58000
H253        H  0.30650766  0.78463858  0.92954398    -0.06600
C254        C  0.16778116  0.83125494  0.02816586     0.92600
O255        O  0.15999124  0.78711415  0.18779264    -0.82800
C256        C  0.17555574  0.77984561  0.23344382     0.92600
O257        O  0.20198404  0.75303804  0.83882806    -0.82800
Mg258      Mg  0.31897318  0.71354629  0.99060956     1.58200
O259        O  0.16634264  0.81805042  0.07186724    -0.81100
O260        O  0.31152761  0.66881419  0.10696460    -0.82800
C261        C  0.97979212  0.21891793  0.42153871     0.02200
C262        C  0.02137251  0.22340127  0.42181280     0.02200
C263        C  0.04195993  0.22304805  0.47292429    -0.18300
C264        C  0.02251679  0.21844156  0.52428864     0.02200
C265        C  0.98075950  0.21320485  0.52377057     0.02200
C266        C  0.96037531  0.21328951  0.47217842    -0.18300
H267        H  0.92836769  0.21001824  0.47169515     0.04200
H268        H  0.07360887  0.22731710  0.47258179     0.04200
C269        C  0.97944817  0.78736679  0.49007219     0.02200
C270        C  0.02178988  0.78441235  0.49019816     0.02200
C271        C  0.04191298  0.78272907  0.54186961    -0.18300
C272        C  0.02132519  0.78256993  0.59324872     0.02200
C273        C  0.97895242  0.78457973  0.59327228     0.02200
C274        C  0.95908614  0.78766615  0.54171039    -0.18300
H275        H  0.92692155  0.79027604  0.54175957     0.04200
H276        H  0.07408254  0.78008209  0.54219471     0.04200
C277        C  0.51658930  0.71500228  0.49672982     0.02200
C278        C  0.47427543  0.71597685  0.49407756     0.02200
C279        C  0.45193853  0.71613826  0.54366551    -0.18300
C280        C  0.47023279  0.71638911  0.59634457     0.02200
C281        C  0.51274812  0.71564282  0.60003944     0.02200
C282        C  0.53501414  0.71447734  0.54978622    -0.18300
H283        H  0.56741384  0.71409837  0.55177143     0.04200
H284        H  0.41953577  0.71732455  0.54113960     0.04200
C285        C  0.48078010  0.29197333  0.41868159     0.02200
C286        C  0.52342046  0.29063426  0.41595635     0.02200
C287        C  0.54521158  0.29002830  0.46655684    -0.18300
C288        C  0.52629807  0.28943691  0.51939326     0.02200
C289        C  0.48389522  0.28973453  0.52145504     0.02200
C290        C  0.46203116  0.29170996  0.47151572    -0.18300
H291        H  0.42959206  0.29214096  0.47387595     0.04200
H292        H  0.57759176  0.28923835  0.46485488     0.04200
C293        C  0.34558748  0.71741048  0.28993157    -0.05300
C294        C  0.35216914  0.69397282  0.30758814    -0.05200
C295        C  0.37981343  0.68878888  0.34988773    -0.23400
C296        C  0.40220888  0.70690101  0.37423210     0.18800
C297        C  0.39684832  0.73047070  0.35537380     0.16000
C298        C  0.36810680  0.73561422  0.31407411    -0.18400
C299        C  0.42012917  0.74850192  0.37848606    -0.20300
C300        C  0.44751005  0.74335379  0.42108330    -0.12800
C301        C  0.45184910  0.72017579  0.44156635     0.03900
C302        C  0.42927887  0.70195200  0.41780370    -0.25000
H303        H  0.33541356  0.67967436  0.28919259     0.08900
H304        H  0.38371160  0.67060976  0.36350002     0.12500
H305        H  0.36381328  0.75370196  0.29989014     0.12500
H306        H  0.41661140  0.76664245  0.36437503     0.12200
H307        H  0.46410464  0.75763061  0.43986452     0.12800
H308        H  0.43212176  0.68410166  0.43427412     0.14700
C309        C  0.44308373  0.71924484  0.64495932    -0.05300
C310        C  0.42282364  0.74079238  0.65127877    -0.05200
C311        C  0.39381890  0.74347103  0.69284871    -0.23400
C312        C  0.38385312  0.72445632  0.72825234     0.18800
C313        C  0.40390617  0.70258745  0.72213211     0.16000
C314        C  0.43357240  0.70012406  0.68054922    -0.18400
C315        C  0.39387452  0.68362738  0.75777337    -0.20300
C316        C  0.36530087  0.68652339  0.80005220    -0.12800
C317        C  0.34555584  0.70825611  0.80681529     0.03900
C318        C  0.35450136  0.72705804  0.77004975    -0.25000
H319        H  0.42938737  0.75555167  0.62346263     0.08900
H320        H  0.37884240  0.76034188  0.69685586     0.12500
H321        H  0.44855756  0.68332955  0.67499180     0.12500
H322        H  0.40872722  0.66671794  0.75375061     0.12200
H323        H  0.35903888  0.67183855  0.82822693     0.12800
H324        H  0.33993386  0.74398674  0.77556952     0.14700
C325        C  0.15240968  0.78276987  0.28543029    -0.05300
C326        C  0.16668594  0.79713696  0.32827495    -0.05200
C327        C  0.14352210  0.80077271  0.37631273    -0.23400
C328        C  0.10619255  0.78958590  0.38274601     0.18800
C329        C  0.09230496  0.77443577  0.34051594     0.16000
C330        C  0.11519326  0.77145032  0.29171642    -0.18400
C331        C  0.05592680  0.76241087  0.34801024    -0.20300
C332        C  0.03334431  0.76546964  0.39668574    -0.12800
C333        C  0.04582183  0.78130821  0.43796731     0.03900
C334        C  0.08263119  0.79317882  0.43072292    -0.25000
H335        H  0.19533717  0.80595660  0.32393875     0.08900
H336        H  0.15482298  0.81228520  0.40845551     0.12500
H337        H  0.10433768  0.76014338  0.25881053     0.12500
H338        H  0.04517226  0.75039947  0.31653173     0.12200
H339        H  0.00606770  0.75535137  0.40212669     0.12800
H340        H  0.09295067  0.80518763  0.46251546     0.14700
C341        C  0.15378509  0.77785137  0.79432729    -0.05300
C342        C  0.15487240  0.80024085  0.76846620    -0.05200
C343        C  0.12876440  0.80581385  0.72444746    -0.23400
C344        C  0.10022517  0.78932418  0.70665333     0.18800
C345        C  0.09785965  0.76704774  0.73389621     0.16000
C346        C  0.12513503  0.76130137  0.77684653    -0.18400
C347        C  0.06835255  0.75088908  0.71748799    -0.20300
C348        C  0.04218962  0.75645365  0.67354260    -0.12800
C349        C  0.04528593  0.77814586  0.64478977     0.03900
C350        C  0.07429658  0.79459548  0.66179602    -0.25000
H351        H  0.17646377  0.81328307  0.78173444     0.08900
H352        H  0.13081245  0.82305047  0.70443557     0.12500
H353        H  0.12364253  0.74414368  0.79741440     0.12500
H354        H  0.06584717  0.73381172  0.73816114     0.12200
H355        H  0.02033638  0.74349487  0.66066401     0.12800
H356        H  0.07688846  0.81134704  0.63960653     0.14700
C357        C  0.53523395  0.71754002  0.65415458    -0.05300
C358        C  0.52434476  0.73430760  0.69440675    -0.05200
C359        C  0.54663654  0.73695697  0.74336049    -0.23400
C360        C  0.58160707  0.72374136  0.75212862     0.18800
C361        C  0.59403911  0.70752630  0.71121076     0.16000
C362        C  0.57033151  0.70410602  0.66338504    -0.18400
C363        C  0.63038289  0.69534817  0.71838922    -0.20300
C364        C  0.65403350  0.69914725  0.76572662    -0.12800
C365        C  0.64113989  0.71458476  0.80745484     0.03900
C366        C  0.60478955  0.72679449  0.80055385    -0.25000
H367        H  0.49933149  0.74605196  0.68751829     0.08900
H368        H  0.53715332  0.74989859  0.77361718     0.12500
H369        H  0.57965964  0.69126303  0.63279298     0.12500
H370        H  0.64067667  0.68303891  0.68718206     0.12200
H371        H  0.68199083  0.68962777  0.77043274     0.12800
H372        H  0.59500828  0.73896981  0.83242545     0.14700
C373        C  0.54247708  0.71544564  0.44557200    -0.05300
C374        C  0.53494552  0.70045137  0.40036200    -0.05200
C375        C  0.55994594  0.70071508  0.35313290    -0.23400
C376        C  0.59340167  0.71573360  0.35047497     0.18800
C377        C  0.60156482  0.73056862  0.39608852     0.16000
C378        C  0.57607648  0.73042727  0.44291463    -0.18400
C379        C  0.63507141  0.74541689  0.39418232    -0.20300
C380        C  0.65999717  0.74591043  0.34724817    -0.12800
C381        C  0.65212712  0.73156661  0.30091434     0.03900
C382        C  0.61875000  0.71628213  0.30312704    -0.25000
H383        H  0.51008176  0.68821000  0.40189595     0.08900
H384        H  0.55327650  0.68903768  0.31888548     0.12500
H385        H  0.58227227  0.74214031  0.47730884     0.12500
H386        H  0.64189292  0.75681540  0.42891373     0.12200
H387        H  0.68543164  0.75777814  0.34718079     0.12800
H388        H  0.61217161  0.70510502  0.26789791     0.14700
C389        C  0.95392698  0.78300617  0.64522418    -0.05300
C390        C  0.96310493  0.79605124  0.69316340    -0.05200
C391        C  0.93785505  0.79526997  0.74018521    -0.23400
C392        C  0.90258707  0.78170714  0.73991290     0.18800
C393        C  0.89305876  0.76866504  0.69182733     0.16000
C394        C  0.91880650  0.76922688  0.64534450    -0.18400
C395        C  0.85782202  0.75526245  0.69079289    -0.20300
C396        C  0.83246719  0.75440712  0.73726658    -0.12800
C397        C  0.84161092  0.76697406  0.78595226     0.03900
C398        C  0.87672794  0.78086101  0.78670441    -0.25000
H399        H  0.98932750  0.80727523  0.69388626     0.08900
H400        H  0.94566357  0.80550948  0.77649556     0.12500
H401        H  0.91137522  0.75895852  0.60887303     0.12500
H402        H  0.84996067  0.74527644  0.65408733     0.12200
H403        H  0.80565813  0.74369378  0.73511947     0.12800
H404        H  0.88429305  0.79063479  0.82385418     0.14700
C405        C  0.85191008  0.77996252  0.28193943    -0.05300
C406        C  0.83965666  0.76562436  0.32738510    -0.05200
C407        C  0.86199249  0.76447925  0.37663868    -0.23400
C408        C  0.89699208  0.77787245  0.38216526     0.18800
C409        C  0.90929678  0.79293903  0.33779011     0.16000
C410        C  0.88687955  0.79376714  0.28768864    -0.18400
C411        C  0.94394695  0.80672281  0.34438537    -0.20300
C412        C  0.96636873  0.80529048  0.39390997    -0.12800
C413        C  0.95514606  0.78969494  0.43753064     0.03900
C414        C  0.91999068  0.77623169  0.43126006    -0.25000
H415        H  0.81308577  0.75474334  0.32447286     0.08900
H416        H  0.85198445  0.75293003  0.41035396     0.12500
H417        H  0.89668838  0.80502791  0.25331901     0.12500
H418        H  0.95375638  0.81859956  0.31121720     0.12200
H419        H  0.99271964  0.81627046  0.39800007     0.12800
H420        H  0.91081898  0.76414815  0.46442126     0.14700
C421        C  0.65310093  0.28778718  0.20894280    -0.05300
C422        C  0.66784802  0.30204387  0.25172325    -0.05200
C423        C  0.64452800  0.30641581  0.29930958    -0.23400
C424        C  0.60656467  0.29596692  0.30568036     0.18800
C425        C  0.59204301  0.28100339  0.26353284     0.16000
C426        C  0.61499496  0.27743864  0.21487972    -0.18400
C427        C  0.55524191  0.26946673  0.27134756    -0.20300
C428        C  0.53323253  0.27249328  0.32062088    -0.12800
C429        C  0.54631039  0.28811614  0.36210281     0.03900
C430        C  0.58323722  0.29987374  0.35386173    -0.25000
H431        H  0.69710482  0.31017087  0.24774823     0.08900
H432        H  0.65636551  0.31776618  0.33140136     0.12500
H433        H  0.60367506  0.26621321  0.18212843     0.12500
H434        H  0.54399602  0.25754366  0.24001425     0.12200
H435        H  0.50619151  0.26222671  0.32653829     0.12800
H436        H  0.59416859  0.31182713  0.38535201     0.14700
C437        C  0.66163270  0.27165431  0.71475533    -0.05300
C438        C  0.66973024  0.25777943  0.66759432    -0.05200
C439        C  0.64474455  0.25843141  0.62094172    -0.23400
C440        C  0.61089533  0.27300237  0.61998189     0.18800
C441        C  0.60242152  0.28738319  0.66638727     0.16000
C442        C  0.62787524  0.28667538  0.71357498    -0.18400
C443        C  0.56857439  0.30211391  0.66458870    -0.20300
C444        C  0.54374454  0.30269085  0.61730837    -0.12800
C445        C  0.55171481  0.28825167  0.57107886     0.03900
C446        C  0.58549277  0.27337471  0.57317724    -0.25000
H447        H  0.69541373  0.24610322  0.66680966     0.08900
H448        H  0.65183077  0.24737925  0.58562830     0.12500
H449        H  0.62101651  0.29742059  0.74950580     0.12500
H450        H  0.56155068  0.31341175  0.69946671     0.12200
H451        H  0.51868361  0.31480841  0.61651236     0.12800
H452        H  0.59204301  0.26199055  0.53825169     0.14700
C453        C  0.95456291  0.22350426  0.37158501    -0.05300
C454        C  0.94922055  0.24683590  0.35250434    -0.05200
C455        C  0.92080007  0.25218862  0.31140567    -0.23400
C456        C  0.89749500  0.23422591  0.28811680     0.18800
C457        C  0.90356955  0.21054098  0.30571449     0.16000
C458        C  0.93171076  0.20536144  0.34789979    -0.18400
C459        C  0.88116314  0.19251425  0.28104516    -0.20300
C460        C  0.85325764  0.19786415  0.23917003    -0.12800
C461        C  0.84634891  0.22138220  0.22225512     0.03900
C462        C  0.86841592  0.23953084  0.24733088    -0.25000
H463        H  0.96607730  0.26106304  0.37104657     0.08900
H464        H  0.91675864  0.27041545  0.29826161     0.12500
H465        H  0.93547750  0.18735620  0.36294986     0.12500
H466        H  0.88551285  0.17425291  0.29370857     0.12200
H467        H  0.83683189  0.18359053  0.22010662     0.12800
H468        H  0.86387730  0.25767860  0.23377164     0.14700
C469        C  0.85375826  0.21655874  0.73276440    -0.05300
C470        C  0.84252083  0.23241124  0.68977759    -0.05200
C471        C  0.86496209  0.23446955  0.64077411    -0.23400
C472        C  0.89909541  0.22056509  0.63307388     0.18800
C473        C  0.91063600  0.20413598  0.67502045     0.16000
C474        C  0.88801756  0.20231872  0.72497386    -0.18400
C475        C  0.94476201  0.19007736  0.66617507    -0.20300
C476        C  0.96733996  0.19256836  0.61677348    -0.12800
C477        C  0.95649085  0.20935905  0.57566646     0.03900
C478        C  0.92200986  0.22309796  0.58413930    -0.25000
H479        H  0.81662278  0.24374512  0.69441411     0.08900
H480        H  0.85570222  0.24711303  0.60895223     0.12500
H481        H  0.89712744  0.19001405  0.75760961     0.12500
H482        H  0.95409743  0.17725764  0.69752540     0.12200
H483        H  0.99355339  0.18160554  0.61088630     0.12800
H484        H  0.91341409  0.23615744  0.55284476     0.14700
C485        C  0.46101050  0.28471092  0.57357854    -0.05300
C486        C  0.46159984  0.26183859  0.59684897    -0.05200
C487        C  0.43561130  0.25563336  0.64060544    -0.23400
C488        C  0.40890550  0.27232391  0.66235455     0.18800
C489        C  0.40945649  0.29574725  0.64099356     0.16000
C490        C  0.43509455  0.30170647  0.59613944    -0.18400
C491        C  0.38385005  0.31265546  0.66429779    -0.20300
C492        C  0.35754412  0.30635062  0.70767760    -0.12800
C493        C  0.35550292  0.28291084  0.72740151     0.03900
C494        C  0.38141188  0.26595636  0.70467692    -0.25000
H495        H  0.48112706  0.24850362  0.57953499     0.08900
H496        H  0.43591977  0.23767192  0.65677874     0.12500
H497        H  0.43451415  0.31937189  0.57811822     0.12500
H498        H  0.38410579  0.33073847  0.64891426     0.12200
H499        H  0.33807146  0.31969426  0.72506812     0.12800
H500        H  0.38053081  0.24793558  0.72053603     0.14700
C501        C  0.45447528  0.29297264  0.36804853    -0.05300
C502        C  0.46151519  0.30940573  0.32454282    -0.05200
C503        C  0.43721673  0.30981159  0.27680117    -0.23400
C504        C  0.40497681  0.29400934  0.27191449     0.18800
C505        C  0.39689270  0.27788824  0.31605210     0.16000
C506        C  0.42168051  0.27741593  0.36354901    -0.18400
C507        C  0.36433653  0.26233862  0.31173892    -0.20300
C508        C  0.34034282  0.26245003  0.26381801    -0.12800
C509        C  0.34857376  0.27793291  0.21881828     0.03900
C510        C  0.38094887  0.29385479  0.22351708    -0.25000
H511        H  0.48605948  0.32183092  0.32737103     0.08900
H512        H  0.44373414  0.32244421  0.24360223     0.12500
H513        H  0.41584615  0.26465350  0.39675753     0.12500
H514        H  0.35761383  0.24990843  0.34528953     0.12200
H515        H  0.31588924  0.24994353  0.26141039     0.12800
H516        H  0.38766633  0.30600361  0.18936797     0.14700
C517        C  0.15788492  0.22158814  0.72214763    -0.05300
C518        C  0.17440363  0.21147536  0.67412513    -0.05200
C519        C  0.15069729  0.20808246  0.62665986    -0.23400
C520        C  0.11049304  0.21546348  0.62598606     0.18800
C521        C  0.09429947  0.22673099  0.67322706     0.16000
C522        C  0.11780442  0.22924776  0.72138056    -0.18400
C523        C  0.05504931  0.23551261  0.67126804    -0.20300
C524        C  0.03199208  0.23313835  0.62295987    -0.12800
C525        C  0.04671861  0.22068774  0.57668740     0.03900
C526        C  0.08632544  0.21194872  0.57879387    -0.25000
H527        H  0.20521126  0.20547929  0.67404970     0.08900
H528        H  0.16378924  0.19969187  0.59050396     0.12500
H529        H  0.10510410  0.23738564  0.75818831     0.12500
H530        H  0.04249579  0.24473083  0.70664204     0.12200
H531        H  0.00273876  0.24133154  0.62177069     0.12800
H532        H  0.09854475  0.20257007  0.54342570     0.14700
C533        C  0.14333039  0.22148474  0.20839463    -0.05300
C534        C  0.12070853  0.20050221  0.20990501    -0.05200
C535        C  0.09010013  0.19719818  0.24955016    -0.23400
C536        C  0.08119080  0.21490541  0.28820678     0.18800
C537        C  0.10301320  0.23630586  0.28604126     0.16000
C538        C  0.13388014  0.23940281  0.24649135    -0.18400
C539        C  0.09422700  0.25411922  0.32431936    -0.20300
C540        C  0.06563643  0.25033812  0.36622436    -0.12800
C541        C  0.04487091  0.22882585  0.37034192     0.03900
C542        C  0.05192599  0.21135036  0.33018294    -0.25000
H543        H  0.12695297  0.18650396  0.18073365     0.08900
H544        H  0.07366648  0.18069708  0.25030715     0.12500
H545        H  0.15047654  0.25585718  0.24531494     0.12500
H546        H  0.11044489  0.27069248  0.32304782     0.12200
H547        H  0.06074399  0.26390965  0.39699185     0.12800
H548        H  0.03633416  0.19459623  0.33358494     0.14700
C549        C  0.89312622  0.05847983  0.93630468    -0.05300
C550        C  0.87909138  0.06921498  0.88692386    -0.05200
C551        C  0.86215637  0.09181541  0.88824730    -0.23400
C552        C  0.85935961  0.10393747  0.93895494     0.18800
C553        C  0.87103890  0.09247336  0.98918406     0.16000
C554        C  0.88744442  0.06972728  0.98754025    -0.18400
C555        C  0.86829149  0.10444124  0.03989407    -0.20300
C556        C  0.85521373  0.12783731  0.04081565    -0.12800
C557        C  0.84490940  0.13977488  0.99101148     0.03900
C558        C  0.84651937  0.12756218  0.94015738    -0.25000
H559        H  0.88402996  0.06085926  0.84703373     0.08900
H560        H  0.85313747  0.10025512  0.84937098     0.12500
H561        H  0.89891800  0.06153507  0.02547980     0.12500
H562        H  0.87704426  0.09586639  0.07873805     0.12200
H563        H  0.85395075  0.13676314  0.08053553     0.12800
H564        H  0.83806535  0.13646153  0.90156261     0.14700
C565        C  0.09325956  0.06234822  0.97583730    -0.05300
C566        C  0.09533148  0.07078812  0.03059240    -0.05200
C567        C  0.11264518  0.09273462  0.04117096    -0.23400
C568        C  0.12712652  0.10679217  0.99682650     0.18800
C569        C  0.12644096  0.09796838  0.94179146     0.16000
C570        C  0.11058078  0.07547791  0.93189459    -0.18400
C571        C  0.13956815  0.11228890  0.89722068    -0.20300
C572        C  0.15229331  0.13536380  0.90680462    -0.12800
C573        C  0.15277683  0.14444142  0.96125429     0.03900
C574        C  0.14080619  0.12983622  0.00628418    -0.25000
H575        H  0.08179048  0.06085897  0.06473667     0.08900
H576        H  0.11295840  0.09918273  0.08360217     0.12500
H577        H  0.10850214  0.06901915  0.88953252     0.12500
H578        H  0.13912792  0.10583875  0.85478700     0.12200
H579        H  0.16185072  0.14611650  0.87144246     0.12800
H580        H  0.14103334  0.13659990  0.04845810     0.14700
C581        C  0.10050103  0.93771380  0.98226081    -0.05300
C582        C  0.13165320  0.93313893  0.94449998    -0.05200
C583        C  0.15311507  0.91193933  0.94821480    -0.23400
C584        C  0.14339519  0.89498931  0.98948375     0.18800
C585        C  0.11347478  0.90010669  0.02945107     0.16000
C586        C  0.09246637  0.92151146  0.02582095    -0.18400
C587        C  0.10369081  0.88325590  0.07071459    -0.20300
C588        C  0.12233662  0.86116447  0.07127407    -0.12800
C589        C  0.15088879  0.85544144  0.03034375     0.03900
C590        C  0.16186100  0.87267870  0.99013588    -0.25000
H591        H  0.13779935  0.94537155  0.91035908     0.08900
H592        H  0.17610785  0.90837349  0.91741184     0.12500
H593        H  0.06808603  0.92497959  0.05462985     0.12500
H594        H  0.08089939  0.88694287  0.10173862     0.12200
H595        H  0.11341795  0.84825897  0.10272611     0.12800
H596        H  0.18413896  0.86857289  0.95867393     0.14700
C597        C  0.90004274  0.93383572  0.96052996    -0.05300
C598        C  0.87201158  0.92708955  0.92027625    -0.05200
C599        C  0.85275160  0.90521301  0.92502687    -0.23400
C600        C  0.86181981  0.88977039  0.96968042     0.18800
C601        C  0.88861174  0.89701143  0.01169551     0.16000
C602        C  0.90712492  0.91911237  0.00715961    -0.18400
C603        C  0.89785542  0.88162016  0.05621493    -0.20300
C604        C  0.88161653  0.85890188  0.05831310    -0.12800
C605        C  0.85608009  0.85120003  0.01576640     0.03900
C606        C  0.84571569  0.86692600  0.97203220    -0.25000
H607        H  0.86661610  0.93820941  0.88389215     0.08900
H608        H  0.83210052  0.89996318  0.89262404     0.12500
H609        H  0.92901082  0.92433789  0.03805331     0.12500
H610        H  0.91828040  0.88698295  0.08879338     0.12200
H611        H  0.88973512  0.84718070  0.09258326     0.12800
H612        H  0.82549565  0.86130807  0.93941490     0.14700
C613        C  0.66227220  0.35811881  0.94879472    -0.05300
C614        C  0.66470493  0.37176510  0.89924641    -0.05200
C615        C  0.65423302  0.39563569  0.89872024    -0.23400
C616        C  0.64071126  0.40638998  0.94761160     0.18800
C617        C  0.63908517  0.39312867  0.99811069     0.16000
C618        C  0.65021508  0.36914863  0.99851150    -0.18400
C619        C  0.62448487  0.40379902  0.04669679    -0.20300
C620        C  0.60854440  0.42663684  0.04412675    -0.12800
C621        C  0.60794863  0.43933859  0.99337171     0.03900
C622        C  0.62611411  0.42965248  0.94593229    -0.25000
H623        H  0.67441727  0.36394127  0.86044351     0.08900
H624        H  0.65565099  0.40551322  0.85965586     0.12500
H625        H  0.64849209  0.35898099  0.03715090     0.12500
H626        H  0.62311014  0.39398329  0.08583949     0.12200
H627        H  0.59403795  0.43376024  0.08078218     0.13200
H628        H  0.62482680  0.43926357  0.90646707     0.14700
C629        C  0.40483410  0.43889403  0.95816408    -0.05300
C630        C  0.38654863  0.43384466  0.90703301    -0.05200
C631        C  0.36726043  0.41220029  0.89965566    -0.23400
C632        C  0.36663397  0.39532091  0.94317622     0.18800
C633        C  0.38335695  0.40092685  0.99559826     0.16000
C634        C  0.40190172  0.42279762  0.00291578    -0.18400
C635        C  0.38318972  0.38412200  0.03898798    -0.20300
C636        C  0.36783612  0.36161209  0.03010884    -0.12800
C637        C  0.35228672  0.35549360  0.97768611     0.03900
C638        C  0.35105318  0.37265165  0.93461224    -0.25000
H639        H  0.38920464  0.44608692  0.87204789     0.08900
H640        H  0.35447726  0.40825132  0.85927071     0.12500
H641        H  0.41660887  0.42669747  0.04209555     0.12500
H642        H  0.39580836  0.38819852  0.07941062     0.12200
H643        H  0.36878379  0.34885521  0.06421006     0.12800
H644        H  0.33875452  0.36826621  0.89417176     0.14700
C645        C  0.33411192  0.63618891  0.05281010    -0.05300
C646        C  0.34213319  0.62186302  0.09989447    -0.05200
C647        C  0.35875212  0.59937131  0.09365608    -0.23400
C648        C  0.36765418  0.59086499  0.04024589     0.18800
C649        C  0.35724364  0.60447727  0.99251531     0.16000
C650        C  0.34035453  0.62693828  0.99911441    -0.18400
C651        C  0.36591014  0.59594834  0.93900605    -0.20300
C652        C  0.38733886  0.57494183  0.93296528    -0.12800
C653        C  0.40026088  0.56225765  0.98030509     0.03900
C654        C  0.38895045  0.56971067  0.03377022    -0.25000
H655        H  0.33706173  0.62839255  0.14165498     0.08900
H656        H  0.36612420  0.58903718  0.13065727     0.12500
H657        H  0.33360310  0.63757663  0.96232229     0.12500
H658        H  0.35781498  0.60606974  0.90197777     0.12200
H659        H  0.39598313  0.56930707  0.89155969     0.12800
H660        H  0.39903275  0.55984076  0.07024717     0.14700
C661        C  0.64232548  0.64589144  0.06323797    -0.05300
C662        C  0.62684551  0.63389726  0.11029940    -0.05200
C663        C  0.61479466  0.61034295  0.10667629    -0.23400
C664        C  0.61846973  0.59831053  0.05608722     0.18800
C665        C  0.63567544  0.60986926  0.00909998     0.16000
C666        C  0.64727827  0.63361312  0.01290301    -0.18400
C667        C  0.63960842  0.59772133  0.95859743    -0.20300
C668        C  0.62388455  0.57495955  0.95357437    -0.12800
C669        C  0.60431862  0.56408230  0.99905243     0.03900
C670        C  0.60317884  0.57539588  0.05082299    -0.25000
H671        H  0.62330078  0.64289156  0.14967172     0.08900
H672        H  0.60187846  0.60168164  0.14314205     0.12500
H673        H  0.66006051  0.64254457  0.97666191     0.12500
H674        H  0.65298827  0.60625028  0.92228538     0.12200
H675        H  0.62426804  0.56654528  0.91318563     0.12800
H676        H  0.58748077  0.56708342  0.08561588     0.14700
loop_ 
_geom_bond_atom_site_label_1 
_geom_bond_atom_site_label_2 
_geom_bond_distance 
_geom_bond_site_symmetry_2 
_ccdc_geom_bond_type 
N1            C6   1.354       .  A
N1            C5   1.353       .  A
N1           H33   1.036       .  S
N2            C9   1.348       .  A
N2           C10   1.349       .  A
N3            C8   1.353       .  A
N3            C7   1.355       .  A
N3           H34   1.036       .  S
N4           C11   1.351       .  A
N4           C12   1.350       .  A
C5           C13   1.387       .  A
C5           C21   1.415       .  A
C6           C22   1.417       .  A
C6           C14   1.389       .  A
C7           C15   1.387       .  A
C7           C24   1.416       .  A
C8           C23   1.418       .  A
C8           C16   1.389       .  A
C9           C21   1.407       .  A
C9           C17   1.386       .  A
C10          C24   1.408       .  A
C10          C18   1.386       .  A
C11          C19   1.385   1_556  A
C11          C22   1.412       .  A
C12          C20   1.386   1_556  A
C12          C23   1.413       .  A
C13          C14   1.368       .  A
C13          H25   1.082       .  S
C14          H26   1.081       .  S
C15          C16   1.370       .  A
C15          H27   1.081       .  S
C16          H28   1.082       .  S
C17          C18   1.375       .  A
C17          H29   1.082       .  S
C18          H30   1.082       .  S
C19          C20   1.379       .  A
C19          H31   1.082       .  S
C20          H32   1.082       .  S
C21         C629   1.477       .  S
C22         C621   1.484       .  S
C23         C669   1.481       .  S
C24         C653   1.481       .  S
N35          C40   1.351       .  A
N35          C39   1.353   1_655  A
N35          H67   1.039       .  S
N36          C43   1.350       .  A
N36          C44   1.349   1_565  A
N37          C42   1.354       .  A
N37          C41   1.354   1_655  A
N37          H68   1.036       .  S
N38          C45   1.349       .  A
N38          C46   1.349   1_565  A
C39          C47   1.388       .  A
C39          C55   1.413       .  A
C40          C56   1.411       .  A
C40          C48   1.387       .  A
C41          C49   1.389       .  A
C41          C58   1.418       .  A
C42          C57   1.416       .  A
C42          C50   1.387       .  A
C43          C55   1.410       .  A
C43          C51   1.385   1_556  A
C44          C58   1.412       .  A
C44          C52   1.387       .  A
C45          C53   1.386       .  A
C45          C56   1.409       .  A
C46          C54   1.386       .  A
C46          C57   1.410       .  A
C47          C48   1.372   1_455  A
C47          H59   1.083       .  S
C48          H60   1.083       .  S
C49          C50   1.369   1_455  A
C49          H61   1.080       .  S
C50          H62   1.082       .  S
C51          C52   1.378   1_564  A
C51          H63   1.082       .  S
C52          H64   1.082   1_556  S
C53          C54   1.378   1_565  A
C53          H65   1.082       .  S
C54          H66   1.082       .  S
C55         C581   1.484       .  S
C56         C597   1.481       .  S
C57         C549   1.481       .  S
C58         C565   1.482       .  S
O69         Mg71   2.137       .  S
O69         Mg77   2.138   1_556  S
O69         C104   1.237   1_556  S
C70         H109   1.081       .  S
C70          O83   1.238       .  S
C70         O107   1.272       .  A
Mg71        O100   2.150       .  S
Mg71        O115   2.296       .  S
Mg71        O111   2.251       .  S
Mg71         O82   2.287       .  S
O72        Mg114   2.139       .  S
O72         Mg97   2.136       .  S
O72          C93   1.239       .  S
O73         C104   1.272       .  A
O73         Mg97   2.303       .  S
C74         C493   1.480       .  S
C74          O76   1.277       .  A
C74          O88   1.277       .  A
O75         C103   1.274       .  A
O75         Mg77   2.309   1_556  S
O76        Mg108   2.289       .  S
Mg77         O83   2.133       .  S
Mg77         O91   2.270       .  S
Mg77         O79   2.330       .  S
C78         C637   1.478       .  S
C78         O116   1.272       .  A
C78          O84   1.274   1_556  A
O79          C86   1.279       .  A
H80          C93   1.081       .  S
C81         H106   1.081       .  S
C81          O95   1.237       .  S
C81          O96   1.270       .  A
O82         C105   1.270       .  A
O83         Mg97   2.143       .  S
O84        Mg114   2.285       .  S
C85         C509   1.492       .  S
C85          O98   1.273       .  A
C85          O90   1.282       .  A
C86         C533   1.490       .  S
C86         O113   1.277       .  A
Mg87         O94   2.122       .  S
Mg87         O95   2.155       .  S
Mg87         O88   2.316       .  S
Mg87         O89   2.301       .  S
Mg87        O116   2.260       .  S
O89          C93   1.273   1_556  A
O90         Mg97   2.351       .  S
O91         C110   1.273   1_554  A
O92         C112   1.280       .  A
O92        Mg108   2.341       .  S
O94        Mg108   2.156       .  S
O94         C105   1.237       .  S
O95        Mg114   2.146   1_556  S
O96        Mg108   2.296       .  S
Mg97        O113   2.281       .  S
O98        Mg114   2.274       .  S
H99         C104   1.081   1_556  S
O100       Mg108   2.143       .  S
O100        C103   1.240       .  S
H101        C103   1.081       .  S
H102        C105   1.081       .  S
O107       Mg114   2.299       .  S
C110        C573   1.481       .  S
C110        O115   1.274       .  A
O111        C112   1.272       .  A
C112        C517   1.476       .  S
O117       Mg119   2.146   1_556  S
O117       Mg125   2.139       .  S
O117        C152   1.239       .  S
C118        H157   1.081       .  S
C118        O131   1.239       .  S
C118        O155   1.273       .  A
Mg119       O148   2.149       .  S
Mg119       O163   2.334   1_554  S
Mg119       O159   2.273       .  S
Mg119       O130   2.299       .  S
O120       Mg162   2.144       .  S
O120       Mg145   2.122       .  S
O120        C141   1.238       .  S
O121        C152   1.273       .  A
O121       Mg145   2.304       .  S
C122        C461   1.483       .  S
C122        O124   1.277       .  A
C122        O136   1.276       .  A
O123        C151   1.274   1_556  A
O123       Mg125   2.310       .  S
O124       Mg156   2.295       .  S
Mg125       O131   2.135       .  S
Mg125       O139   2.254       .  S
Mg125       O127   2.361       .  S
C126        C557   1.481       .  S
C126        O164   1.274   1_556  A
C126        O132   1.277       .  A
O127        C134   1.281       .  A
H128        C141   1.081       .  S
C129        H154   1.081       .  S
C129        O143   1.238       .  S
C129        O144   1.272       .  A
O130        C153   1.272       .  A
O131       Mg145   2.131       .  S
O132       Mg162   2.314       .  S
C133        C469   1.490       .  S
C133        O146   1.275       .  A
C133        O138   1.276       .  A
C134        C437   1.494       .  S
C134        O161   1.272       .  A
Mg135       O142   2.143       .  S
Mg135       O143   2.149       .  S
Mg135       O136   2.307       .  S
Mg135       O137   2.295   1_554  S
Mg135       O164   2.266       .  S
O137        C141   1.271       .  A
O138       Mg145   2.297       .  S
O139        C158   1.273       .  A
O140        C160   1.280       .  A
O140       Mg156   2.343       .  S
O142       Mg156   2.158       .  S
O142        C153   1.239       .  S
O143       Mg162   2.147   1_554  S
O144       Mg156   2.299       .  S
Mg145       O161   2.253       .  S
O146       Mg162   2.305       .  S
H147        C152   1.081       .  S
O148       Mg156   2.148       .  S
O148        C151   1.239       .  S
H149        C151   1.081       .  S
H150        C153   1.081       .  S
O155       Mg162   2.303       .  S
C158        C613   1.487       .  S
C158        O163   1.279       .  A
O159        C160   1.274       .  A
C160        C421   1.479       .  S
O165       Mg167   2.143   1_554  S
O165       Mg173   2.141       .  S
O165        C200   1.238       .  S
C166        H205   1.081       .  S
C166        O179   1.238       .  S
C166        O203   1.272       .  A
Mg167       O196   2.146       .  S
Mg167       O211   2.302   1_556  S
Mg167       O207   2.272       .  S
Mg167       O178   2.294       .  S
O168       Mg210   2.147       .  S
O168       Mg193   2.135       .  S
O168        C189   1.239       .  S
O169        C200   1.272       .  A
O169       Mg193   2.302       .  S
C170        C397   1.490       .  S
C170        O172   1.275       .  A
C170        O184   1.279       .  A
O171        C199   1.273       .  A
O171       Mg173   2.306       .  S
O172       Mg204   2.267       .  S
Mg173       O179   2.139       .  S
Mg173       O187   2.269       .  S
Mg173       O175   2.345       .  S
C174        C605   1.476       .  S
C174        O212   1.271   1_554  A
C174        O180   1.278       .  A
O175        C182   1.280       .  A
H176        C189   1.081       .  S
C177        H202   1.081   1_556  S
C177        O191   1.237   1_556  S
C177        O192   1.272       .  A
O178        C201   1.272       .  A
O179       Mg193   2.136       .  S
O180       Mg210   2.315       .  S
C181        C405   1.495       .  S
C181        O194   1.277       .  A
C181        O186   1.278       .  A
C182        C381   1.491       .  S
C182        O209   1.274       .  A
Mg183       O190   2.130       .  S
Mg183       O191   2.149   1_556  S
Mg183       O184   2.341       .  S
Mg183       O185   2.302   1_556  S
Mg183       O212   2.239       .  S
O185        C189   1.273       .  A
O186       Mg193   2.317       .  S
O187        C206   1.274       .  A
O188        C208   1.277       .  A
O188       Mg204   2.328       .  S
O190       Mg204   2.141       .  S
O190        C201   1.239       .  S
O191       Mg210   2.158       .  S
O192       Mg204   2.305       .  S
Mg193       O209   2.263       .  S
O194       Mg210   2.312       .  S
H195        C200   1.081       .  S
O196       Mg204   2.132       .  S
O196        C199   1.239   1_556  S
H197        C199   1.081   1_556  S
H198        C201   1.081       .  S
O203       Mg210   2.304       .  S
C206        C661   1.478       .  S
C206        O211   1.275       .  A
O207        C208   1.272       .  A
C208        C365   1.477       .  S
O213       Mg215   2.143       .  S
O213       Mg221   2.154   1_554  S
O213        C248   1.238   1_554  S
C214        H253   1.081       .  S
C214        O227   1.238       .  S
C214        O251   1.272       .  A
Mg215       O244   2.154       .  S
Mg215       O259   2.317       .  S
Mg215       O255   2.270       .  S
Mg215       O226   2.289       .  S
O216       Mg258   2.130       .  S
O216       Mg241   2.146       .  S
O216        C237   1.239       .  S
O217        C248   1.271       .  A
O217       Mg241   2.298       .  S
C218        C293   1.482       .  S
C218        O220   1.276       .  A
C218        O232   1.277       .  A
O219        C247   1.271       .  A
O219       Mg221   2.296   1_554  S
O220       Mg252   2.284       .  S
Mg221       O227   2.139       .  S
Mg221       O235   2.266       .  S
Mg221       O223   2.324       .  S
C222        C645   1.483       .  S
C222        O260   1.274       .  A
C222        O228   1.273       .  A
O223        C230   1.278       .  A
H224        C237   1.081       .  S
C225        H250   1.081       .  S
C225        O239   1.238       .  S
C225        O240   1.271       .  A
O226        C249   1.270       .  A
O227       Mg241   2.151       .  S
O228       Mg258   2.289   1_554  S
C229        C317   1.480       .  S
C229        O242   1.270       .  A
C229        O234   1.281       .  A
C230        C341   1.482       .  S
C230        O257   1.276       .  A
Mg231       O238   2.129       .  S
Mg231       O239   2.149       .  S
Mg231       O232   2.315       .  S
Mg231       O233   2.308       .  S
Mg231       O260   2.279       .  S
O233        C237   1.274   1_554  A
O234       Mg241   2.355       .  S
O235        C254   1.274   1_556  A
O236        C256   1.279       .  A
O236       Mg252   2.330       .  S
O238       Mg252   2.154       .  S
O238        C249   1.237       .  S
O239       Mg258   2.133   1_554  S
O240       Mg252   2.297       .  S
Mg241       O257   2.287       .  S
O242       Mg258   2.247       .  S
H243        C248   1.081   1_554  S
O244       Mg252   2.140       .  S
O244        C247   1.238       .  S
H245        C247   1.081       .  S
H246        C249   1.081       .  S
O251       Mg258   2.304       .  S
C254        C589   1.483       .  S
C254        O259   1.278       .  A
O255        C256   1.274       .  A
C256        C325   1.474       .  S
C261        C262   1.411   1_655  A
C261        C266   1.405       .  A
C261        C453   1.484       .  S
C262        C263   1.404       .  A
C262        C541   1.487       .  S
C263        C264   1.409       .  A
C263        H268   1.084       .  S
C264        C265   1.425   1_455  A
C264        C525   1.500       .  S
C265        C266   1.411       .  A
C265        C477   1.494       .  S
C266        H267   1.085       .  S
C269        C270   1.423   1_655  A
C269        C274   1.409       .  A
C269        C413   1.502       .  S
C270        C271   1.411       .  A
C270        C333   1.495       .  S
C271        C272   1.407       .  A
C271        H276   1.084       .  S
C272        C273   1.419   1_455  A
C272        C349   1.490       .  S
C273        C274   1.411       .  A
C273        C389   1.497       .  S
C274        H275   1.084       .  S
C277        C278   1.415       .  A
C277        C282   1.412       .  A
C277        C373   1.496       .  S
C278        C279   1.400       .  A
C278        C301   1.481       .  S
C279        C280   1.402       .  A
C279        H284   1.086       .  S
C280        C281   1.423       .  A
C280        C309   1.483       .  S
C281        C282   1.414       .  A
C281        C357   1.504       .  S
C282        H283   1.083       .  S
C285        C286   1.427       .  A
C285        C290   1.409       .  A
C285        C501   1.499       .  S
C286        C287   1.414       .  A
C286        C429   1.505       .  S
C287        C288   1.411       .  A
C287        H292   1.083       .  S
C288        C289   1.416       .  A
C288        C445   1.503       .  S
C289        C290   1.405       .  A
C289        C485   1.485       .  S
C290        H291   1.085       .  S
C293        C294   1.405       .  A
C293        C298   1.407       .  A
C294        C295   1.400       .  A
C294        H303   1.083       .  S
C295        C296   1.403       .  A
C295        H304   1.083       .  S
C296        C302   1.407       .  A
C296        C297   1.415       .  A
C297        C299   1.404       .  A
C297        C298   1.407       .  A
C298        H305   1.084       .  S
C299        C300   1.399       .  A
C299        H306   1.083       .  S
C300        C301   1.402       .  A
C300        H307   1.083       .  S
C301        C302   1.405       .  A
C302        H308   1.084       .  S
C309        C310   1.405       .  A
C309        C314   1.404       .  A
C310        C311   1.396       .  A
C310        H319   1.083       .  S
C311        C312   1.401       .  A
C311        H320   1.083       .  S
C312        C318   1.407       .  A
C312        C313   1.417       .  A
C313        C315   1.402       .  A
C313        C314   1.410       .  A
C314        H321   1.084       .  S
C315        C316   1.400       .  A
C315        H322   1.084       .  S
C316        C317   1.407       .  A
C316        H323   1.083       .  S
C317        C318   1.404       .  A
C318        H324   1.084       .  S
C325        C326   1.402       .  A
C325        C330   1.405       .  A
C326        C327   1.401       .  A
C326        H335   1.083       .  S
C327        C328   1.405       .  A
C327        H336   1.083       .  S
C328        C334   1.407       .  A
C328        C329   1.413       .  A
C329        C331   1.402       .  A
C329        C330   1.406       .  A
C330        H337   1.085       .  S
C331        C332   1.398       .  A
C331        H338   1.084       .  S
C332        C333   1.407       .  A
C332        H339   1.083       .  S
C333        C334   1.410       .  A
C334        H340   1.084       .  S
C341        C342   1.404       .  A
C341        C346   1.407       .  A
C342        C343   1.402       .  A
C342        H351   1.083       .  S
C343        C344   1.405       .  A
C343        H352   1.083       .  S
C344        C350   1.410       .  A
C344        C345   1.414       .  A
C345        C347   1.405       .  A
C345        C346   1.410       .  A
C346        H353   1.084       .  S
C347        C348   1.401       .  A
C347        H354   1.083       .  S
C348        C349   1.403       .  A
C348        H355   1.083       .  S
C349        C350   1.408       .  A
C350        H356   1.084       .  S
C357        C358   1.408       .  A
C357        C362   1.413       .  A
C358        C359   1.399       .  A
C358        H367   1.079       .  S
C359        C360   1.401       .  A
C359        H368   1.084       .  S
C360        C366   1.408       .  A
C360        C361   1.413       .  A
C361        C363   1.405       .  A
C361        C362   1.409       .  A
C362        H369   1.084       .  S
C363        C364   1.401       .  A
C363        H370   1.083       .  S
C364        C365   1.402       .  A
C364        H371   1.083       .  S
C365        C366   1.406       .  A
C366        H372   1.084       .  S
C373        C374   1.407       .  A
C373        C378   1.407       .  A
C374        C375   1.403       .  A
C374        H383   1.082       .  S
C375        C376   1.405       .  A
C375        H384   1.083       .  S
C376        C382   1.412       .  A
C376        C377   1.413       .  A
C377        C379   1.400       .  A
C377        C378   1.405       .  A
C378        H385   1.084       .  S
C379        C380   1.396       .  A
C379        H386   1.084       .  S
C380        C381   1.408       .  A
C380        H387   1.083       .  S
C381        C382   1.411       .  A
C382        H388   1.084       .  S
C389        C390   1.407       .  A
C389        C394   1.408       .  A
C390        C391   1.404       .  A
C390        H399   1.082       .  S
C391        C392   1.406       .  A
C391        H400   1.083       .  S
C392        C398   1.412       .  A
C392        C393   1.412       .  A
C393        C395   1.400       .  A
C393        C394   1.404       .  A
C394        H401   1.084       .  S
C395        C396   1.396       .  A
C395        H402   1.084       .  S
C396        C397   1.407       .  A
C396        H403   1.083       .  S
C397        C398   1.412       .  A
C398        H404   1.084       .  S
C405        C406   1.408       .  A
C405        C410   1.413       .  A
C406        C407   1.397       .  A
C406        H415   1.083       .  S
C407        C408   1.401       .  A
C407        H416   1.084       .  S
C408        C414   1.407       .  A
C408        C409   1.413       .  A
C409        C411   1.406       .  A
C409        C410   1.415       .  A
C410        H417   1.084       .  S
C411        C412   1.405       .  A
C411        H418   1.083       .  S
C412        C413   1.408       .  A
C412        H419   1.083       .  S
C413        C414   1.409       .  A
C414        H420   1.084       .  S
C421        C422   1.402       .  A
C421        C426   1.407       .  A
C422        C423   1.402       .  A
C422        H431   1.083       .  S
C423        C424   1.406       .  A
C423        H432   1.083       .  S
C424        C430   1.409       .  A
C424        C425   1.413       .  A
C425        C427   1.402       .  A
C425        C426   1.409       .  A
C426        H433   1.084       .  S
C427        C428   1.400       .  A
C427        H434   1.084       .  S
C428        C429   1.409       .  A
C428        H435   1.082       .  S
C429        C430   1.413       .  A
C430        H436   1.084       .  S
C437        C438   1.409       .  A
C437        C442   1.412       .  A
C438        C439   1.395       .  A
C438        H447   1.083       .  S
C439        C440   1.399       .  A
C439        H448   1.084       .  S
C440        C446   1.407       .  A
C440        C441   1.414       .  A
C441        C443   1.405       .  A
C441        C442   1.415       .  A
C442        H449   1.084       .  S
C443        C444   1.404       .  A
C443        H450   1.083       .  S
C444        C445   1.409       .  A
C444        H451   1.082       .  S
C445        C446   1.408       .  A
C446        H452   1.084       .  S
C453        C454   1.404       .  A
C453        C458   1.406       .  A
C454        C455   1.399       .  A
C454        H463   1.083       .  S
C455        C456   1.403       .  A
C455        H464   1.083       .  S
C456        C462   1.408       .  A
C456        C457   1.415       .  A
C457        C459   1.403       .  A
C457        C458   1.409       .  A
C458        H465   1.084       .  S
C459        C460   1.400       .  A
C459        H466   1.084       .  S
C460        C461   1.406       .  A
C460        H467   1.083       .  S
C461        C462   1.406       .  A
C462        H468   1.084       .  S
C469        C470   1.408       .  A
C469        C474   1.413       .  A
C470        C471   1.393       .  A
C470        H479   1.083       .  S
C471        C472   1.398       .  A
C471        H480   1.084       .  S
C472        C478   1.402       .  A
C472        C473   1.414       .  A
C473        C475   1.407       .  A
C473        C474   1.414       .  A
C474        H481   1.084       .  S
C475        C476   1.406       .  A
C475        H482   1.083       .  S
C476        C477   1.407       .  A
C476        H483   1.083       .  S
C477        C478   1.405       .  A
C478        H484   1.085       .  S
C485        C486   1.403       .  A
C485        C490   1.406       .  A
C486        C487   1.399       .  A
C486        H495   1.083       .  S
C487        C488   1.403       .  A
C487        H496   1.083       .  S
C488        C494   1.408       .  A
C488        C489   1.415       .  A
C489        C491   1.403       .  A
C489        C490   1.408       .  A
C490        H497   1.084       .  S
C491        C492   1.400       .  A
C491        H498   1.083       .  S
C492        C493   1.404       .  A
C492        H499   1.083       .  S
C493        C494   1.406       .  A
C494        H500   1.084       .  S
C501        C502   1.406       .  A
C501        C506   1.411       .  A
C502        C503   1.403       .  A
C502        H511   1.083       .  S
C503        C504   1.406       .  A
C503        H512   1.083       .  S
C504        C510   1.411       .  A
C504        C505   1.412       .  A
C505        C507   1.404       .  A
C505        C506   1.408       .  A
C506        H513   1.084       .  S
C507        C508   1.400       .  A
C507        H514   1.084       .  S
C508        C509   1.406       .  A
C508        H515   1.083       .  S
C509        C510   1.413       .  A
C510        H516   1.084       .  S
C517        C518   1.402       .  A
C517        C522   1.407       .  A
C518        C519   1.401       .  A
C518        H527   1.083       .  S
C519        C520   1.406       .  A
C519        H528   1.083       .  S
C520        C526   1.406       .  A
C520        C521   1.412       .  A
C521        C523   1.402       .  A
C521        C522   1.405       .  A
C522        H529   1.085       .  S
C523        C524   1.399       .  A
C523        H530   1.084       .  S
C524        C525   1.408       .  A
C524        H531   1.081       .  S
C525        C526   1.413       .  A
C526        H532   1.084       .  S
C533        C534   1.408       .  A
C533        C538   1.408       .  A
C534        C535   1.403       .  A
C534        H543   1.083       .  S
C535        C536   1.404       .  A
C535        H544   1.083       .  S
C536        C542   1.412       .  A
C536        C537   1.414       .  A
C537        C539   1.402       .  A
C537        C538   1.406       .  A
C538        H545   1.084       .  S
C539        C540   1.397       .  A
C539        H546   1.084       .  S
C540        C541   1.404       .  A
C540        H547   1.083       .  S
C541        C542   1.408       .  A
C542        H548   1.084       .  S
C549        C550   1.403       .  A
C549        C554   1.401       .  A
C550        C551   1.400       .  A
C550        H559   1.083       .  S
C551        C552   1.405       .  A
C551        H560   1.083       .  S
C552        C558   1.405       .  A
C552        C553   1.414       .  A
C553        C555   1.400   1_556  A
C553        C554   1.401       .  A
C554        H561   1.085   1_556  S
C555        C556   1.395       .  A
C555        H562   1.084       .  S
C556        C557   1.406   1_554  A
C556        H563   1.083       .  S
C557        C558   1.408       .  A
C558        H564   1.084       .  S
C565        C566   1.402   1_556  A
C565        C570   1.403       .  A
C566        C567   1.397       .  A
C566        H575   1.083       .  S
C567        C568   1.403   1_554  A
C567        H576   1.084       .  S
C568        C574   1.404   1_556  A
C568        C569   1.415       .  A
C569        C571   1.400       .  A
C569        C570   1.403       .  A
C570        H577   1.085       .  S
C571        C572   1.396       .  A
C571        H578   1.084       .  S
C572        C573   1.407       .  A
C572        H579   1.083       .  S
C573        C574   1.406   1_556  A
C574        H580   1.084       .  S
C581        C582   1.402       .  A
C581        C586   1.405   1_556  A
C582        C583   1.400       .  A
C582        H591   1.083       .  S
C583        C584   1.405       .  A
C583        H592   1.083       .  S
C584        C590   1.406       .  A
C584        C585   1.413   1_556  A
C585        C587   1.402       .  A
C585        C586   1.402       .  A
C586        H593   1.085       .  S
C587        C588   1.397       .  A
C587        H594   1.084       .  S
C588        C589   1.406       .  A
C588        H595   1.083       .  S
C589        C590   1.409   1_554  A
C590        H596   1.084       .  S
C597        C598   1.402       .  A
C597        C602   1.404   1_556  A
C598        C599   1.399       .  A
C598        H607   1.083       .  S
C599        C600   1.405       .  A
C599        H608   1.084       .  S
C600        C606   1.401       .  A
C600        C601   1.412   1_556  A
C601        C603   1.402       .  A
C601        C602   1.399       .  A
C602        H609   1.085       .  S
C603        C604   1.396       .  A
C603        H610   1.084       .  S
C604        C605   1.404       .  A
C604        H611   1.083       .  S
C605        C606   1.409   1_554  A
C606        H612   1.084       .  S
C613        C614   1.409       .  A
C613        C618   1.409       .  A
C614        C615   1.396       .  A
C614        H623   1.083       .  S
C615        C616   1.400       .  A
C615        H624   1.084       .  S
C616        C622   1.405       .  A
C616        C617   1.415       .  A
C617        C619   1.403   1_556  A
C617        C618   1.408       .  A
C618        H625   1.084   1_556  S
C619        C620   1.399       .  A
C619        H626   1.083       .  S
C620        C621   1.403   1_554  A
C620        H627   1.083       .  S
C621        C622   1.403       .  A
C622        H628   1.084       .  S
C629        C630   1.402       .  A
C629        C634   1.400   1_556  A
C630        C631   1.398       .  A
C630        H639   1.083       .  S
C631        C632   1.404       .  A
C631        H640   1.083       .  S
C632        C638   1.403       .  A
C632        C633   1.414       .  A
C633        C635   1.399   1_556  A
C633        C634   1.398   1_556  A
C634        H641   1.085       .  S
C635        C636   1.393       .  A
C635        H642   1.084       .  S
C636        C637   1.406   1_554  A
C636        H643   1.083       .  S
C637        C638   1.408       .  A
C638        H644   1.084       .  S
C645        C646   1.406       .  A
C645        C650   1.409   1_554  A
C646        C647   1.399       .  A
C646        H655   1.083       .  S
C647        C648   1.403       .  A
C647        H656   1.084       .  S
C648        C654   1.403       .  A
C648        C649   1.413   1_554  A
C649        C651   1.404       .  A
C649        C650   1.402       .  A
C650        H657   1.084       .  S
C651        C652   1.397       .  A
C651        H658   1.084       .  S
C652        C653   1.402       .  A
C652        H659   1.083       .  S
C653        C654   1.403   1_556  A
C654        H660   1.084       .  S
C661        C662   1.404       .  A
C661        C666   1.408       .  A
C662        C663   1.397       .  A
C662        H671   1.083       .  S
C663        C664   1.402       .  A
C663        H672   1.084       .  S
C664        C670   1.402       .  A
C664        C665   1.414       .  A
C665        C667   1.404   1_554  A
C665        C666   1.403       .  A
C666        H673   1.084   1_554  S
C667        C668   1.399       .  A
C667        H674   1.084       .  S
C668        C669   1.403       .  A
C668        H675   1.083       .  S
C669        C670   1.403   1_556  A
C670        H676   1.085       .  S
