geometry optimzed in LAMMPS
_audit_creation_date              2020-11-30 
_audit_creation_method            'lammps2cif' 
_symmetry_space_group_name_H-M    'P1' 
_symmetry_Int_Tables_number       1 
_symmetry_cell_setting            triclinic 
loop_ 
_symmetry_equiv_pos_as_xyz 
  x,y,z 
_cell_length_a                    33.1583205 
_cell_length_b                    33.91550971286138 
_cell_length_c                    43.4302147512853 
_cell_angle_alpha                 90.28293203987798 
_cell_angle_beta                  89.42039462692038 
_cell_angle_gamma                 119.45751313017368 
loop_ 
_atom_site_label 
_atom_site_type_symbol 
_atom_site_fract_x 
_atom_site_fract_y 
_atom_site_fract_z 
_atom_site_charge 
O1          O  0.43038981  0.24379941  0.87795854    -0.78400
C2          C  0.40740820  0.10743847  0.87892333     0.82600
O3          O  0.42682130  0.20642714  0.77053186    -0.79500
O4          O  0.29379053  0.05957515  0.81117455    -0.81000
O5          O  0.26352428  0.15591397  0.87587631    -0.80800
O6          O  0.36677141  0.25004668  0.87861413    -0.79400
Zn7        Zn  0.41786074  0.19305249  0.84920458     1.55700
O8          O  0.26431082  0.09079161  0.87813725    -0.80800
Cd9        Cd  0.32296679  0.19741639  0.85067495     1.59700
Cd10       Cd  0.35748974  0.16910041  0.78690549     1.59600
O11         O  0.30406189  0.22482912  0.81549802    -0.80800
O12         O  0.35517784  0.16540470  0.83364002    -1.91300
Cd13       Cd  0.32008183  0.10177955  0.84909166     1.59900
O14         O  0.32359727  0.20403089  0.77163434    -0.80800
O15         O  0.36428840  0.08495254  0.87258299    -0.79400
C16         C  0.46444302  0.22576503  0.78589070     0.83100
C17         C  0.40834841  0.26373031  0.88679158     0.82700
O18         O  0.43171994  0.14877846  0.87104033    -0.78400
C19         C  0.24596524  0.11516922  0.88520108     0.83600
O20         O  0.46377311  0.22171959  0.81500421    -0.78500
C21         C  0.30589330  0.22481842  0.78621267     0.83700
C22         C  0.29871281  0.06409262  0.78195154     0.84000
O23         O  0.32330651  0.10277235  0.76910548    -0.80900
C24         C  0.22159102  0.31926917  0.72355515     0.86600
C25         C  0.17319920  0.29860220  0.73840224    -0.53700
C26         C  0.14753814  0.31797414  0.72986037     0.09500
C27         C  0.17282765  0.35761185  0.70713786     0.20400
C28         C  0.21256836  0.31739714  0.68873701    -0.54400
C29         C  0.18658148  0.33678401  0.68021406     0.09600
C30         C  0.24461712  0.37012577  0.73089837    -0.53900
C31         C  0.21926512  0.39020640  0.72289461     0.10200
H32         H  0.16004497  0.27035152  0.75442188     0.14700
H33         H  0.15201310  0.37362789  0.70031115     0.00400
H34         H  0.22352799  0.30121324  0.67173374     0.15000
H35         H  0.27742223  0.38842989  0.74281885     0.14800
C36         C  0.49841752  0.44253467  0.94177635     0.86600
C37         C  0.05055252  0.47260576  0.93599246    -0.53700
C38         C  0.06757299  0.01668791  0.94477459     0.09500
C39         C  0.03035889  0.02668557  0.95922566     0.20400
C40         C  0.49188740  0.44800842  0.97610940    -0.54400
C41         C  0.00742339  0.99137795  0.98539036     0.09600
C42         C  0.47632499  0.46709433  0.92532597    -0.53900
C43         C  0.49210635  0.01027036  0.93430399     0.10200
H44         H  0.07252641  0.46216771  0.92408598     0.14700
H45         H  0.04374860  0.06223290  0.96685018     0.00400
H46         H  0.47331842  0.41939477  0.99156244     0.15000
H47         H  0.45026707  0.45090082  0.90767997     0.14800
O48         O  0.49686627  0.41073995  0.46289564    -0.78400
C49         C  0.10786620  0.05017278  0.45329204     0.82600
O50         O  0.02235729  0.46205370  0.56615188    -0.79500
O51         O  0.04038526  0.10035385  0.51692547    -0.81000
O52         O  0.41732286  0.00005856  0.45444782    -0.80800
O53         O  0.42882316  0.40712788  0.45526129    -0.79400
Zn54       Zn  0.03454880  0.46790016  0.48746028     1.55700
O55         O  0.48244312  0.06621118  0.45218712    -0.80800
Cd56       Cd  0.43353130  0.45999801  0.48006579     1.59700
Cd57       Cd  0.48661096  0.49306521  0.54550114     1.59600
O58         O  0.38159332  0.43515135  0.51234699    -0.80800
O59         O  0.49546257  0.49354200  0.49927242    -1.91300
Cd60       Cd  0.02538662  0.05564694  0.48152879     1.59900
O61         O  0.41542726  0.45851205  0.55776416    -0.80800
O62         O  0.08617648  0.07179378  0.45848990    -0.79400
C63         C  0.04926300  0.44886563  0.55433230     0.83100
C64         C  0.45638117  0.39153097  0.45141743     0.82700
O65         O  0.09199038  0.00975334  0.46299348    -0.78400
C66         C  0.44016106  0.04069989  0.44515689     0.83600
O67         O  0.05699875  0.45078401  0.52540365    -0.78500
C68         C  0.37889247  0.43771436  0.54142303     0.83700
C69         C  0.03494241  0.09838210  0.54604068     0.84000
O70         O  0.01611270  0.06068693  0.56060165    -0.80900
C71         C  0.36942814  0.21332393  0.39549523     0.86600
C72         C  0.38946813  0.18179247  0.40083398    -0.53700
C73         C  0.36243137  0.13891734  0.39022361     0.09500
C74         C  0.31720532  0.13083592  0.37482756     0.20400
C75         C  0.36126115  0.21073909  0.36080911    -0.54400
C76         C  0.33363570  0.16803804  0.34996963     0.09600
C77         C  0.32096302  0.18831317  0.41018387    -0.53900
C78         C  0.29292345  0.14544144  0.39932643     0.10200
H79         H  0.42143079  0.19075187  0.41257374     0.14700
H80         H  0.29546753  0.09619482  0.36556636     0.00400
H81         H  0.37459613  0.24045713  0.34610651     0.15000
H82         H  0.30987393  0.20379466  0.42785362     0.14800
C83         C  0.12221131  0.27416893  0.60781002     0.86600
C84         C  0.16864763  0.29943852  0.59030386    -0.53700
C85         C  0.19580305  0.34374059  0.59836121     0.09500
C86         C  0.17382096  0.35951068  0.62356428     0.20400
C87         C  0.13641120  0.28135433  0.64180812    -0.54400
C88         C  0.16344271  0.32563624  0.65001392     0.09600
C89         C  0.09895254  0.30319917  0.60320435    -0.53900
C90         C  0.12571372  0.34781018  0.61083231     0.10200
H91         H  0.17955948  0.28300906  0.57320866     0.14700
H92         H  0.19557441  0.39554727  0.63027808     0.00400
H93         H  0.12867461  0.25518913  0.65852286     0.15000
H94         H  0.06501711  0.29002409  0.59287273     0.14800
O95         O  0.16066403  0.25392959  0.20611011    -0.78400
C96         C  0.04027158  0.26826846  0.21461286     0.82600
O97         O  0.12157892  0.26839177  0.10059068    -0.79500
O98         O  0.09228566  0.38473976  0.15186359    -0.81000
O99         O  0.22580481  0.41511964  0.21175303    -0.80800
O100        O  0.22816396  0.31822821  0.20760449    -0.79400
Zn101      Zn  0.11917654  0.26612584  0.17930162     1.55700
O102        O  0.15768828  0.41258404  0.21478860    -0.80800
Cd103      Cd  0.21338196  0.36162058  0.18313264     1.59700
Cd104      Cd  0.14905405  0.33367782  0.12038687     1.59600
O105        O  0.25956134  0.38990796  0.14716446    -0.80800
O106        O  0.14870843  0.32934264  0.16698876    -1.91300
Cd107      Cd  0.11488070  0.35837596  0.18639269     1.59900
O108        O  0.21763179  0.37314303  0.10431237    -0.80800
O109        O  0.05795432  0.31111184  0.21190655    -0.79400
C110        C  0.10817613  0.22990001  0.11335473     0.83100
C111        C  0.20257905  0.27669530  0.21459592     0.82700
O112        O  0.05915286  0.24706859  0.20236317    -0.78400
C113        C  0.20043797  0.43089810  0.22184741     0.83600
O114        O  0.10645249  0.22568576  0.14251909    -0.78500
C115        C  0.25659349  0.39273609  0.11811131     0.83700
C116        C  0.09336796  0.38576454  0.12244382     0.84000
O117        O  0.11196203  0.36658088  0.10686339    -0.80900
C118        C  0.43805826  0.48694342  0.05771937     0.86600
C119        C  0.46706587  0.03629526  0.06413559    -0.53700
C120        C  0.01398076  0.05458313  0.05776675     0.09500
C121        C  0.02596610  0.01965267  0.04356462     0.20400
C122        C  0.44744426  0.48370275  0.02315411    -0.54400
C123        C  0.99318413  0.00020234  0.01592801     0.09600
C124        C  0.46158345  0.46386775  0.07420200    -0.53900
C125        C  0.00698604  0.48091391  0.06651512     0.10200
H126        H  0.45315901  0.05634593  0.07454342     0.14700
H127        H  0.06315985  0.03349703  0.03760550     0.00400
H128        H  0.42091152  0.46924933  0.00572208     0.15000
H129        H  0.44329039  0.43593458  0.09021352     0.14800
C130        C  0.28649616  0.18145044  0.27334777     0.86600
C131        C  0.26137073  0.13072738  0.26612151    -0.53700
C132        C  0.28352169  0.10803077  0.27567845     0.09500
C133        C  0.32968687  0.13890952  0.29233884     0.20400
C134        C  0.29343511  0.18349056  0.30837521    -0.54400
C135        C  0.31604337  0.16140061  0.31827264     0.09600
C136        C  0.33542540  0.19996504  0.26003528    -0.53900
C137        C  0.35811040  0.17815517  0.26967982     0.10200
H138        H  0.22887541  0.11430103  0.25372565     0.14700
H139        H  0.34847922  0.12159413  0.30069588     0.00400
H140        H  0.28388692  0.20214967  0.32436344     0.15000
H141        H  0.35134828  0.22883959  0.24453143     0.14800
C142        C  0.38769641  0.46663705  0.06938922    -0.05400
C143        C  0.38030294  0.48073444  0.09854035    -0.32800
C144        C  0.33756576  0.45814180  0.11380778     0.36400
C145        C  0.30024156  0.41990446  0.10040937    -0.05800
C146        C  0.30647124  0.40595581  0.07114759    -0.32700
C147        C  0.34982551  0.42790558  0.05608106     0.36300
H148        H  0.40853795  0.50822934  0.11067723     0.16700
O149        O  0.33276388  0.47377907  0.14206535    -0.60200
H150        H  0.27843496  0.37604216  0.06074455     0.16700
O151        O  0.35495048  0.40908680  0.02940361    -0.60300
H152        H  0.36637919  0.38834770  0.03590978     0.43700
H153        H  0.34724629  0.46245300  0.15691250     0.43700
C154        C  0.09266601  0.18824491  0.09447207    -0.05400
C155        C  0.06442212  0.18075183  0.06879080    -0.32800
C156        C  0.04163605  0.13801512  0.05466629     0.36400
C157        C  0.04756944  0.10219873  0.06578798    -0.05800
C158        C  0.07925275  0.11083571  0.08942717    -0.32700
C159        C  0.10132015  0.15327830  0.10402204     0.36300
H160        H  0.05739109  0.20705981  0.06101776     0.16700
O161        O  0.01105219  0.13064988  0.03140262    -0.60200
H162        H  0.58370901  0.08345950  0.09701999     0.16700
O163        O  0.13056353  0.16000144  0.12806495    -0.60300
H164        H  0.61025908  0.14430265  0.14502322     0.43700
H165        H  0.02813666  0.13220188  0.01212597     0.43700
C166        C  0.03399981  0.46075182  0.07954394    -0.05400
C167        C  0.04476433  0.43269118  0.06142251    -0.32800
C168        C  0.06423986  0.40806312  0.07470128     0.36400
C169        C  0.07328559  0.41134805  0.10667765    -0.05800
C170        C  0.06311945  0.44037535  0.12439296    -0.32700
C171        C  0.04340786  0.46444870  0.11118237     0.36300
H172        H  0.03652926  0.42862140  0.03712437     0.16700
O173        O  0.07216169  0.37940780  0.05647028    -0.60200
H174        H  0.07008278  0.44432164  0.14885493     0.16700
O175        O  0.03345626  0.49173265  0.12944868    -0.60300
H176        H  0.00269248  0.47129009  0.13874727     0.43700
H177        H  0.10284916  0.39883608  0.04666938     0.41300
C178        C  0.26267373  0.20581511  0.25932424    -0.05400
C179        C  0.24842912  0.23208929  0.27689455    -0.32800
C180        C  0.22898409  0.25579605  0.26265959     0.36400
C181        C  0.22292543  0.25300387  0.23065567    -0.05800
C182        C  0.23633179  0.22678451  0.21313947    -0.32700
C183        C  0.25611334  0.20349617  0.22704129     0.36300
H184        H  0.25246813  0.23525797  0.30151242     0.16700
O185        O  0.21523331  0.28085318  0.28024721    -0.60200
H186        H  0.23185834  0.22470325  0.18837937     0.16700
O187        O  0.27048552  0.17962290  0.20866204    -0.60300
H188        H  0.24174466  0.15211393  0.20226303     0.43700
H189        H  0.24255698  0.31173486  0.28087056     0.43700
C190        C  0.22200774  0.47277325  0.24104140    -0.05400
C191        C  0.26958649  0.99817474  0.24266940    -0.32800
C192        C  0.29091634  0.04109675  0.25654681     0.36400
C193        C  0.26368364  0.05882282  0.26876973    -0.05800
C194        C  0.21536114  0.03046629  0.27030570    -0.32700
C195        C  0.19501996  0.48840301  0.25659168     0.36300
H196        H  0.29136669  0.98663903  0.23162756     0.16700
O197        O  0.33821848  0.06644257  0.25600273    -0.60200
H198        H  0.19372450  0.04257295  0.28084534     0.16700
O199        O  0.14766988  0.46259417  0.25796722    -0.60300
H200        H  0.13608186  0.47515607  0.24191912     0.43700
H201        H  0.34875736  0.05496144  0.27336726     0.43700
C202        C  0.40685349  0.19510403  0.26013503    -0.05400
C203        C  0.44131205  0.23606809  0.27259205    -0.32800
C204        C  0.98656744  0.25824222  0.25915606     0.36400
C205        C  0.99592920  0.24208107  0.23155269    -0.05800
C206        C  0.46203780  0.19936399  0.22112774    -0.32700
C207        C  0.41747285  0.17696647  0.23411814     0.36300
H208        H  0.43312464  0.25119609  0.29199586     0.16700
O209        O  0.01951954  0.29791963  0.27212857    -0.60200
H210        H  0.46913959  0.18532089  0.20066284     0.16700
O211        O  0.38365043  0.13937614  0.21968586    -0.60300
H212        H  0.36926815  0.15100676  0.20496433     0.43700
H213        H  0.03887823  0.28937890  0.28467476     0.43700
C214        C  0.24342145  0.11853874  0.40968408    -0.05400
C215        C  0.21898150  0.14174812  0.41622142    -0.32800
C216        C  0.17488691  0.11992975  0.42965157     0.36400
C217        C  0.15311342  0.07321193  0.43643867    -0.05800
C218        C  0.17609978  0.04915043  0.42803131    -0.32700
C219        C  0.22090034  0.07136167  0.41483943     0.36300
H220        H  0.23447773  0.17761682  0.41139751     0.16700
O221        O  0.15389660  0.14515404  0.43642956    -0.60200
H222        H  0.15984225  0.01308374  0.43234714     0.16700
O223        O  0.24240248  0.04676906  0.40752675    -0.60300
H224        H  0.24260465  0.03119246  0.42675003     0.43700
H225        H  0.16509915  0.15786193  0.45722962     0.43700
C226        C  0.39657934  0.26180751  0.40729137    -0.05400
C227        C  0.43641340  0.27687867  0.42559181    -0.32800
C228        C  0.45745037  0.31972319  0.43910485     0.36400
C229        C  0.43948204  0.34899439  0.43410109    -0.05800
C230        C  0.40149021  0.33528801  0.41455960    -0.32700
C231        C  0.37975575  0.29215372  0.40157822     0.36300
H232        H  0.45094086  0.25560485  0.43109359     0.16700
O233        O  0.49419748  0.33161057  0.45838214    -0.60200
H234        H  0.38734169  0.35749585  0.41015139     0.16700
O235        O  0.34136236  0.27960599  0.38373781    -0.60300
H236        H  0.31551528  0.27210756  0.39846229     0.43700
H237        H  0.98295008  0.32294898  0.47758545     0.43700
C238        C  0.41605967  0.05925541  0.42713769    -0.05400
C239        C  0.43767680  0.08658248  0.40137760    -0.32800
C240        C  0.41730390  0.10886444  0.38650336     0.36400
C241        C  0.37515994  0.10423967  0.39763166    -0.05800
C242        C  0.35286489  0.07562590  0.42262827    -0.32700
C243        C  0.37259860  0.05260706  0.43711457     0.36300
H244        H  0.47104750  0.09182599  0.39344253     0.16700
O245        O  0.43993007  0.13712729  0.36218808    -0.60200
H246        H  0.32245143  0.07448973  0.43282158     0.16700
O247        O  0.35172467  0.02780020  0.46311244    -0.60300
H248        H  0.32758578  0.48191810  0.43394284     0.43700
H249        H  0.46385875  0.16578688  0.37155612     0.43700
C250        C  0.33172597  0.41591849  0.55600684    -0.05400
C251        C  0.32634446  0.41947382  0.58793771    -0.32800
C252        C  0.28220791  0.39787489  0.60197624     0.36400
C253        C  0.24243448  0.37197020  0.58414662    -0.05800
C254        C  0.24758884  0.36957029  0.55224062    -0.32700
C255        C  0.29126321  0.39135932  0.53812456     0.36300
H256        H  0.35645315  0.43848248  0.60222210     0.16700
O257        O  0.27860268  0.40102876  0.63325573    -0.60200
H258        H  0.21738743  0.35018763  0.53806211     0.16700
O259        O  0.29370408  0.38718469  0.50681581    -0.60300
H260        H  0.29219040  0.91198103  0.49876362     0.43700
H261        H  0.28382813  0.37696529  0.64197046     0.43700
C262        C  0.05189467  0.14168991  0.56303359    -0.05400
C263        C  0.05877161  0.14340501  0.59491215    -0.32800
C264        C  0.07937104  0.18478584  0.61085018     0.36400
C265        C  0.09341364  0.22604414  0.59477267    -0.05800
C266        C  0.08310444  0.22324531  0.56319583    -0.32700
C267        C  0.06318846  0.18221176  0.54738090     0.36300
H268        H  0.04954443  0.11260744  0.60755737     0.16700
O269        O  0.08516945  0.18344879  0.64187018    -0.60200
H270        H  0.09243320  0.25378796  0.55018033     0.16700
O271        O  0.54597300  0.18022721  0.51850893    -0.60300
H272        H  0.57490062  0.19194127  0.50608940     0.43700
H273        H  0.11266567  0.17939562  0.64408798     0.43700
C274        C  0.07187517  0.42971896  0.57398910    -0.05400
C275        C  0.11742288  0.43963228  0.56697207    -0.32800
C276        C  0.13707060  0.41599700  0.58108265     0.36400
C277        C  0.11090171  0.38122132  0.60230161    -0.05800
C278        C  0.06637875  0.37314733  0.61070956    -0.32700
C279        C  0.04709074  0.39752459  0.59707527     0.36300
H280        H  0.13720796  0.46451984  0.54943727     0.16700
O281        O  0.18055960  0.42489526  0.57221123    -0.60200
H282        H  0.04559132  0.34622376  0.62679441     0.16700
O283        O  0.00240775  0.38647096  0.60430255    -0.60300
H284        H  0.00486460  0.40466717  0.62285641     0.43700
H285        H  0.17580322  0.40561494  0.55386298     0.43700
C286        C  0.47640501  0.39294691  0.93192213    -0.05400
C287        C  0.50253653  0.37453607  0.91873548    -0.32800
C288        C  0.48100308  0.33149790  0.90550287     0.36400
C289        C  0.43231228  0.30535023  0.90548613    -0.05800
C290        C  0.40631429  0.32153979  0.92127214    -0.32700
C291        C  0.42784931  0.36466915  0.93455097     0.36300
H292        H  0.03966966  0.39208694  0.91868844     0.16700
O293        O  0.50804508  0.31690898  0.89071799    -0.60200
H294        H  0.36889567  0.30137604  0.92243836     0.16700
O295        O  0.40101929  0.37940128  0.94952802    -0.60300
H296        H  0.38273821  0.38368556  0.93326238     0.43700
H297        H  0.01569260  0.30051966  0.90825765     0.43700
C298        C  0.20267840  0.09540359  0.90423299    -0.05400
C299        C  0.19446290  0.06211071  0.92630008    -0.32800
C300        C  0.15221422  0.04000212  0.94243247     0.36400
C301        C  0.11643820  0.05000026  0.93620316    -0.05800
C302        C  0.12555696  0.08510667  0.91552331    -0.32700
C303        C  0.16820539  0.10782834  0.89967078     0.36300
H304        H  0.22053441  0.05240632  0.93058267     0.16700
O305        O  0.14497932  0.00627526  0.96276921    -0.60200
H306        H  0.09798281  0.59205926  0.90920484     0.16700
O307        O  0.17454443  0.14005576  0.87828614    -0.60300
H308        H  0.16291152  0.62303944  0.85826233     0.43700
H309        H  0.14872479  0.02008335  0.98349473     0.43700
C310        C  0.47020172  0.03680335  0.92308303    -0.05400
C311        C  0.49753510  0.08250325  0.91500010    -0.32800
C312        C  0.47782721  0.10640970  0.90124084     0.36400
C313        C  0.42961836  0.08464348  0.89547033    -0.05800
C314        C  0.40207283  0.03973958  0.90544303    -0.32700
C315        C  0.42176559  0.01597053  0.91914636     0.36300
H316        H  0.03424113  0.10031695  0.91970661     0.16700
O317        O  0.50641187  0.15055604  0.89269146    -0.60200
H318        H  0.36487947  0.02251592  0.90241268     0.16700
O319        O  0.39250704  0.47319465  0.92984160    -0.60300
H320        H  0.37858001  0.45470600  0.91111621     0.43700
H321        H  0.00970968  0.16926264  0.91320409     0.43700
C322        C  0.28689458  0.25005506  0.76915173    -0.05400
C323        C  0.27565747  0.24142736  0.73784143    -0.32800
C324        C  0.25540372  0.26329129  0.72194003     0.36400
C325        C  0.24763043  0.29630312  0.73704818    -0.05800
C326        C  0.25937828  0.30467581  0.76839097    -0.32700
C327        C  0.27842902  0.28221148  0.78430485     0.36300
H328        H  0.28091016  0.21622570  0.72581408     0.16700
O329        O  0.24151187  0.24985314  0.69235692    -0.60200
H330        H  0.25242290  0.32822645  0.78118643     0.16700
O331        O  0.28902083  0.29256277  0.81479042    -0.60300
H332        H  0.25928223  0.27490455  0.82609551     0.43700
H333        H  0.20895342  0.22506047  0.69416356     0.43700
C334        C  0.51044745  0.25388172  0.77035507    -0.05400
C335        C  0.51545386  0.25331168  0.73810201    -0.32800
C336        C  0.06029016  0.27704254  0.72430904     0.36400
C337        C  0.10007590  0.30105661  0.74249675    -0.05800
C338        C  0.09479646  0.30322738  0.77431952    -0.32700
C339        C  0.05109051  0.28104677  0.78831949     0.36300
H340        H  0.48546539  0.23332352  0.72391901     0.16700
O341        O  0.06439964  0.27340553  0.69313080    -0.60200
H342        H  0.12509475  0.32130971  0.78863236     0.16700
O343        O  0.04850437  0.28496029  0.81963418    -0.60300
H344        H  0.04366600  0.31132942  0.82273877     0.43700
H345        H  0.06280106  0.29940798  0.68413427     0.43700
C346        C  0.27490478  0.02240002  0.76291625    -0.05400
C347        C  0.23261529  0.48672116  0.77327693    -0.32800
C348        C  0.21190634  0.44457342  0.75848532     0.36400
C349        C  0.23393587  0.43718442  0.73307878    -0.05800
C350        C  0.27536928  0.47346880  0.72166712    -0.32700
C351        C  0.29572242  0.51611174  0.73611334     0.36300
H352        H  0.21503664  0.99132735  0.79315688     0.16700
O353        O  0.17228284  0.40966030  0.77081615    -0.60200
H354        H  0.29310084  0.46807431  0.70239181     0.16700
O355        O  0.33789932  0.04931376  0.72595720    -0.60300
H356        H  0.36125442  0.54663643  0.73599943     0.43700
H357        H  0.14660523  0.40941093  0.75912922     0.43700
O358        O  0.43004784  0.74375141  0.87780517    -0.78400
C359        C  0.40729924  0.60809442  0.87923753     0.82600
O360        O  0.42697029  0.70709369  0.77040802    -0.79500
O361        O  0.29404136  0.55998638  0.81103784    -0.81000
O362        O  0.26344244  0.65636953  0.87574007    -0.80800
O363        O  0.36655874  0.75019922  0.87847415    -0.79400
Zn364      Zn  0.41776231  0.69332170  0.84902107     1.55700
O365        O  0.26425264  0.59126693  0.87796154    -0.80800
Cd366      Cd  0.32283085  0.69771883  0.85049918     1.59700
Cd367      Cd  0.35748641  0.66960742  0.78669107     1.59600
O368        O  0.30378914  0.72503790  0.81541300    -0.80800
O369        O  0.35510243  0.66577771  0.83343277    -1.91300
Cd370      Cd  0.32007576  0.60223470  0.84897949     1.59900
O371        O  0.32347582  0.70454340  0.77150791    -0.80800
O372        O  0.36419997  0.58563803  0.87282781    -0.79400
C373        C  0.46457310  0.72632804  0.78581206     0.83100
C374        C  0.40806240  0.76367382  0.88671439     0.82700
O375        O  0.43173242  0.64930762  0.87111588    -0.78400
C376        C  0.24592597  0.61564149  0.88506736     0.83600
O377        O  0.46380968  0.72215566  0.81491788    -0.78500
C378        C  0.30555640  0.72510738  0.78613635     0.83700
C379        C  0.29885837  0.56444319  0.78179944     0.84000
O380        O  0.32328419  0.60314729  0.76891616    -0.80900
C381        C  0.22074702  0.81905110  0.72331203     0.86600
C382        C  0.17208216  0.79822565  0.73781381    -0.53700
C383        C  0.14670918  0.81792877  0.72933236     0.09500
C384        C  0.17238263  0.85784869  0.70691067     0.20400
C385        C  0.21207520  0.81760377  0.68848422    -0.54400
C386        C  0.18637007  0.83726923  0.67998318     0.09600
C387        C  0.24372243  0.86974899  0.73104693    -0.53900
C388        C  0.21861578  0.89006890  0.72299235     0.10200
H389        H  0.15859042  0.76973369  0.75364363     0.14700
H390        H  0.15177964  0.87408379  0.70006850     0.00400
H391        H  0.22238753  0.80099855  0.67143180     0.15000
H392        H  0.27630109  0.88772140  0.74326570     0.14800
C393        C  0.49869530  0.94216238  0.94157665     0.86600
C394        C  0.05022035  0.97271128  0.93596208    -0.53700
C395        C  0.06769426  0.51663604  0.94463465     0.09500
C396        C  0.03031829  0.52653911  0.95889114     0.20400
C397        C  0.49173793  0.94758820  0.97581256    -0.54400
C398        C  0.00736094  0.49136795  0.98511612     0.09600
C399        C  0.47698195  0.96682212  0.92483704    -0.53900
C400        C  0.49152432  0.51058737  0.93480287     0.10200
H401        H  0.07204580  0.96228352  0.92385183     0.14700
H402        H  0.04355105  0.56211201  0.96640039     0.00400
H403        H  0.47296554  0.91895322  0.99122198     0.15000
H404        H  0.45109549  0.95069299  0.90707586     0.14800
O405        O  0.49705620  0.91179849  0.46250394    -0.78400
C406        C  0.10686915  0.55081690  0.45225669     0.82600
O407        O  0.02227471  0.96273766  0.56695232    -0.79500
O408        O  0.04076898  0.60065631  0.51730763    -0.81000
O409        O  0.41826706  0.49849484  0.45133907    -0.80800
O410        O  0.42949303  0.90903238  0.45467399    -0.79400
Zn411      Zn  0.03476666  0.96741081  0.48815195     1.55700
O412        O  0.48260848  0.56525105  0.45117498    -0.80800
Cd413      Cd  0.43435901  0.96079794  0.48088496     1.59700
Cd414      Cd  0.48826115  0.99364198  0.54574152     1.59600
O415        O  0.38323246  0.93409048  0.51346061    -0.80800
O416        O  0.49659618  0.99441335  0.49947847    -1.91300
Cd417      Cd  0.02503512  0.55616205  0.48162864     1.59900
O418        O  0.41714776  0.95877837  0.55867139    -0.80800
O419        O  0.08534149  0.57251731  0.45777872    -0.79400
C420        C  0.04908276  0.94926640  0.55535554     0.83100
C421        C  0.45668914  0.89300718  0.45086781     0.82700
O422        O  0.09115670  0.51042216  0.46196082    -0.78400
C423        C  0.44115963  0.53937971  0.44249491     0.83600
O424        O  0.05670087  0.95060155  0.52644149    -0.78500
C425        C  0.38057703  0.93701488  0.54248181     0.83700
C426        C  0.03587282  0.59830331  0.54647509     0.84000
O427        O  0.01727045  0.56047865  0.56086944    -0.80900
C428        C  0.36900621  0.71350566  0.39659101     0.86600
C429        C  0.38951213  0.68241497  0.40193783    -0.53700
C430        C  0.36354903  0.63973305  0.39060120     0.09500
C431        C  0.31803580  0.63122100  0.37519773     0.20400
C432        C  0.36118054  0.71135418  0.36187840    -0.54400
C433        C  0.33431832  0.66875619  0.35066062     0.09600
C434        C  0.32052230  0.68772136  0.41105112    -0.53900
C435        C  0.29284152  0.64506221  0.39967853     0.10200
H436        H  0.42110600  0.69163702  0.41419740     0.14700
H437        H  0.29688193  0.59675854  0.36552958     0.00400
H438        H  0.37422477  0.74131546  0.34743379     0.15000
H439        H  0.30904824  0.70273821  0.42880544     0.14800
C440        C  0.12276746  0.77447857  0.60760319     0.86600
C441        C  0.16925583  0.79945338  0.59026987    -0.53700
C442        C  0.19654973  0.84372296  0.59834452     0.09500
C443        C  0.17441653  0.85984624  0.62321803     0.20400
C444        C  0.13592883  0.78184122  0.64175674    -0.54400
C445        C  0.16338457  0.82611388  0.64980239     0.09600
C446        C  0.09963103  0.80361246  0.60265563    -0.53900
C447        C  0.12642780  0.84826335  0.61025948     0.10200
H448        H  0.18016423  0.78279632  0.57334978     0.14700
H449        H  0.19630188  0.89587330  0.62991578     0.00400
H450        H  0.12559143  0.75565548  0.65891189     0.15000
H451        H  0.06551162  0.79038778  0.59261252     0.14800
O452        O  0.16023146  0.75218938  0.20594355    -0.78400
C453        C  0.03983783  0.76698402  0.21560221     0.82600
O454        O  0.12160610  0.76826805  0.10091895    -0.79500
O455        O  0.09146036  0.88338759  0.15261482    -0.81000
O456        O  0.22482827  0.91375289  0.21251141    -0.80800
O457        O  0.22713039  0.81698789  0.20850988    -0.79400
Zn458      Zn  0.11837302  0.76468396  0.17969422     1.55700
O459        O  0.15668199  0.91114364  0.21547824    -0.80800
Cd460      Cd  0.21251152  0.86026893  0.18398297     1.59700
Cd461      Cd  0.14898773  0.83317592  0.12112877     1.59600
O462        O  0.25907205  0.88839972  0.14825009    -0.80800
O463        O  0.14800725  0.82806078  0.16766961    -1.91300
Cd464      Cd  0.11410537  0.85698270  0.18706053     1.59900
O465        O  0.21762564  0.87300771  0.10533275    -0.80800
O466        O  0.05741287  0.80976411  0.21261072    -0.79400
C467        C  0.10753208  0.72949850  0.11341340     0.83100
C468        C  0.20190675  0.77520100  0.21487323     0.82700
O469        O  0.05864251  0.74567807  0.20335750    -0.78400
C470        C  0.19941654  0.92950727  0.22254417     0.83600
O471        O  0.10525932  0.72473235  0.14255209    -0.78500
C472        C  0.25650245  0.89199029  0.11924313     0.83700
C473        C  0.09301850  0.88483291  0.12320759     0.84000
O474        O  0.11203713  0.86606566  0.10765406    -0.80900
C475        C  0.43736446  0.98543470  0.05735436     0.86600
C476        C  0.46856248  0.53771376  0.06457787    -0.53700
C477        C  0.01309779  0.55496388  0.05697230     0.09500
C478        C  0.02542079  0.52011553  0.04309135     0.20400
C479        C  0.44683693  0.98214183  0.02278287    -0.54400
C480        C  0.99277756  0.50024817  0.01547377     0.09600
C481        C  0.46184584  0.96318172  0.07376511    -0.53900
C482        C  0.00732840  0.98022784  0.06684462     0.10200
H483        H  0.45534073  0.55860634  0.07451778     0.14700
H484        H  0.06265591  0.53411587  0.03718821     0.00400
H485        H  0.42071313  0.96709060  0.00521487     0.15000
H486        H  0.44410030  0.93515054  0.08978195     0.14800
C487        C  0.28767803  0.68201465  0.27380990     0.86600
C488        C  0.26237700  0.63124196  0.26684645    -0.53700
C489        C  0.28446211  0.60853386  0.27645475     0.09500
C490        C  0.33069262  0.63944134  0.29304711     0.20400
C491        C  0.29474916  0.68442464  0.30881056    -0.54400
C492        C  0.31725891  0.66233159  0.31884352     0.09600
C493        C  0.33650133  0.70023714  0.26040447    -0.53900
C494        C  0.35908590  0.67839935  0.27019640     0.10200
H495        H  0.22989012  0.61481417  0.25444172     0.14700
H496        H  0.34940203  0.62207303  0.30146811     0.00400
H497        H  0.28515429  0.70313564  0.32471756     0.15000
H498        H  0.35237594  0.72883555  0.24466994     0.14800
C499        C  0.38739450  0.96496823  0.06993695    -0.05400
C500        C  0.38231933  0.97551107  0.10070326    -0.32800
C501        C  0.33993127  0.95339817  0.11637303     0.36400
C502        C  0.30044476  0.91913117  0.10169037    -0.05800
C503        C  0.30428231  0.90947731  0.07068327    -0.32700
C504        C  0.34713169  0.93126873  0.05494876     0.36300
H505        H  0.41216287  0.00007107  0.11341011     0.16700
O506        O  0.33760058  0.96586040  0.14617888    -0.60200
H507        H  0.27441026  0.88310853  0.05897454     0.16700
O508        O  0.34892279  0.91702886  0.02570716    -0.60300
H509        H  0.35515173  0.89146508  0.02827614     0.43700
H510        H  0.35080710  0.95080962  0.15887712     0.43700
C511        C  0.09196427  0.68818499  0.09420647    -0.05400
C512        C  0.06350699  0.68102325  0.06869664    -0.32800
C513        C  0.04060569  0.63845251  0.05435533     0.36400
C514        C  0.04662205  0.60251894  0.06512364    -0.05800
C515        C  0.07861642  0.61092466  0.08850175    -0.32700
C516        C  0.10080742  0.65318116  0.10329927     0.36300
H517        H  0.05642827  0.70743687  0.06124030     0.16700
O518        O  0.00996297  0.63138402  0.03119226    -0.60200
H519        H  0.58332363  0.58307294  0.09886751     0.16700
O520        O  0.13037141  0.65969379  0.12709445    -0.60300
H521        H  0.60828117  0.64384056  0.14671422     0.43700
H522        H  0.02740961  0.63437454  0.01182043     0.43700
C523        C  0.03419377  0.96004693  0.08005270    -0.05400
C524        C  0.04592179  0.93273165  0.06189063    -0.32800
C525        C  0.06518599  0.90799392  0.07527468     0.36400
C526        C  0.07303703  0.91042899  0.10739196    -0.05800
C527        C  0.06188613  0.93869137  0.12516732    -0.32700
C528        C  0.04237157  0.96285540  0.11185054     0.36300
H529        H  0.03859037  0.92930553  0.03745966     0.16700
O530        O  0.07412586  0.88008662  0.05696442    -0.60200
H531        H  0.06791806  0.94196787  0.14974613     0.16700
O532        O  0.03140709  0.98937478  0.13016585    -0.60300
H533        H  0.00069252  0.96835314  0.13929654     0.43700
H534        H  0.10499806  0.90004081  0.04756726     0.41300
C535        C  0.26375321  0.70613934  0.25966671    -0.05400
C536        C  0.24961336  0.73258019  0.27711707    -0.32800
C537        C  0.22948398  0.75557810  0.26283415     0.36400
C538        C  0.22249092  0.75178065  0.23092888    -0.05800
C539        C  0.23596412  0.72554013  0.21349850    -0.32700
C540        C  0.25662184  0.70310043  0.22743297     0.36300
H541        H  0.25425754  0.73644514  0.30166840     0.16700
O542        O  0.21594855  0.78091606  0.28029819    -0.60200
H543        H  0.23101215  0.72291883  0.18878126     0.16700
O544        O  0.27122207  0.67932004  0.20914130    -0.60300
H545        H  0.24260894  0.65160870  0.20284767     0.43700
H546        H  0.24300851  0.81198517  0.28022326     0.43700
C547        C  0.22096357  0.97152953  0.24154633    -0.05400
C548        C  0.27065441  0.49936839  0.24229767    -0.32800
C549        C  0.29198740  0.54206843  0.25653097     0.36400
C550        C  0.26472412  0.55944425  0.26923205    -0.05800
C551        C  0.21638919  0.53111860  0.27056551    -0.32700
C552        C  0.19400028  0.98732644  0.25692878     0.36300
H553        H  0.29244031  0.48803052  0.23102561     0.16700
O554        O  0.33928447  0.56769153  0.25573213    -0.60200
H555        H  0.19472813  0.54305682  0.28129129     0.16700
O556        O  0.14671328  0.96119195  0.25879556    -0.60300
H557        H  0.13454358  0.97329911  0.24282495     0.43700
H558        H  0.35016705  0.55631360  0.27296589     0.43700
C559        C  0.40751726  0.69474709  0.26025753    -0.05400
C560        C  0.44284227  0.73430784  0.27367161    -0.32800
C561        C  0.98530802  0.75905324  0.25916848     0.36400
C562        C  0.99562652  0.74108602  0.23280735    -0.05800
C563        C  0.46126856  0.70082730  0.21959621    -0.32700
C564        C  0.41701254  0.67812189  0.23301497     0.36300
H565        H  0.43552698  0.74825891  0.29411137     0.16700
O566        O  0.01734381  0.80016588  0.27093854    -0.60200
H567        H  0.46758225  0.68805188  0.19822589     0.16700
O568        O  0.38244574  0.64160720  0.21810041    -0.60300
H569        H  0.36784440  0.65436382  0.20448358     0.43700
H570        H  0.03677062  0.79340480  0.28479199     0.43700
C571        C  0.24270581  0.61846014  0.40905077    -0.05400
C572        C  0.21898500  0.64225935  0.41622178    -0.32800
C573        C  0.17470024  0.62071630  0.42941275     0.36400
C574        C  0.15188073  0.57370033  0.43515256    -0.05800
C575        C  0.17375103  0.54907496  0.42563387    -0.32700
C576        C  0.21873805  0.57095981  0.41273438     0.36300
H577        H  0.23522353  0.67838940  0.41222928     0.16700
O578        O  0.15468831  0.64650282  0.43717688    -0.60200
H579        H  0.15649623  0.51273069  0.42893485     0.16700
O580        O  0.23891128  0.54561881  0.40427012    -0.60300
H581        H  0.23782461  0.52818907  0.42284141     0.43700
H582        H  0.16582385  0.65785920  0.45824291     0.43700
C583        C  0.39568287  0.76208396  0.40830765    -0.05400
C584        C  0.43747090  0.77870634  0.42465159    -0.32800
C585        C  0.45889076  0.82197699  0.43751340     0.36400
C586        C  0.43933313  0.85019253  0.43375251    -0.05800
C587        C  0.39941266  0.83501075  0.41587437    -0.32700
C588        C  0.37739897  0.79145817  0.40353254     0.36300
H589        H  0.45380617  0.75861391  0.42873212     0.16700
O590        O  0.49798984  0.83547994  0.45473725    -0.60200
H591        H  0.38405235  0.85637782  0.41227927     0.16700
O592        O  0.33753816  0.77763840  0.38703359    -0.60300
H593        H  0.31295968  0.77137168  0.40256718     0.43700
H594        H  0.98124008  0.82061726  0.47844314     0.43700
C595        C  0.41816252  0.55802571  0.42314076    -0.05400
C596        C  0.44452860  0.59372018  0.40276289    -0.32800
C597        C  0.42507510  0.61747715  0.38874044     0.36400
C598        C  0.37891586  0.60609843  0.39552028    -0.05800
C599        C  0.35169848  0.56826036  0.41383902    -0.32700
C600        C  0.37066654  0.54375313  0.42727227     0.36300
H601        H  0.48079763  0.60450518  0.39874225     0.16700
O602        O  0.45188643  0.65321335  0.36957974    -0.60200
H603        H  0.31704077  0.56024012  0.42022315     0.16700
O604        O  0.34374614  0.50918082  0.44713937    -0.60300
H605        H  0.32832019  0.99751108  0.45552159     0.43700
H606        H  0.47506802  0.67726957  0.38301251     0.43700
C607        C  0.33331763  0.91483278  0.55698383    -0.05400
C608        C  0.32757957  0.91794493  0.58891751    -0.32800
C609        C  0.28319697  0.89662648  0.60266973     0.36400
C610        C  0.24355464  0.87154110  0.58453093    -0.05800
C611        C  0.24912356  0.86937473  0.55267183    -0.32700
C612        C  0.29299972  0.89077720  0.53885355     0.36300
H613        H  0.35755876  0.93647189  0.60339572     0.16700
O614        O  0.27916802  0.89932386  0.63395085    -0.60200
H615        H  0.21905872  0.85051012  0.53827896     0.16700
O616        O  0.29572832  0.88690288  0.50753656    -0.60300
H617        H  0.28952476  0.41184250  0.49796484     0.43700
H618        H  0.28480471  0.87547955  0.64258390     0.43700
C619        C  0.05307147  0.64136786  0.56369176    -0.05400
C620        C  0.06698606  0.64439624  0.59435896    -0.32800
C621        C  0.08837720  0.68609253  0.60986160     0.36400
C622        C  0.09454550  0.72605599  0.59501152    -0.05800
C623        C  0.07887066  0.72196600  0.56452701    -0.32700
C624        C  0.05865142  0.68068949  0.54897053     0.36300
H625        H  0.06361103  0.61467932  0.60594642     0.16700
O626        O  0.10515542  0.68681138  0.63861210    -0.60200
H627        H  0.08398101  0.75165361  0.55200525     0.16700
O628        O  0.55340861  0.68197633  0.51679744    -0.60300
H629        H  0.58351657  0.69177460  0.50618360     0.43700
H630        H  0.13718324  0.69243606  0.63519692     0.43700
C631        C  0.07176761  0.93044077  0.57520189    -0.05400
C632        C  0.11795843  0.94184902  0.56894125    -0.32800
C633        C  0.13777390  0.91805511  0.58261262     0.36400
C634        C  0.11110810  0.88159378  0.60254984    -0.05800
C635        C  0.06593684  0.87217162  0.61043204    -0.32700
C636        C  0.04645346  0.89667816  0.59725800     0.36300
H637        H  0.13811161  0.96796865  0.55219841     0.16700
O638        O  0.18198872  0.92849679  0.57443311    -0.60200
H639        H  0.04482745  0.84409754  0.62564640     0.16700
O640        O  0.00118092  0.88423968  0.60372279    -0.60300
H641        H  0.00214451  0.90017249  0.62314712     0.43700
H642        H  0.17856085  0.90991613  0.55591057     0.43700
C643        C  0.47647004  0.89258609  0.93187528    -0.05400
C644        C  0.50249409  0.87373364  0.91923812    -0.32800
C645        C  0.48078756  0.83064928  0.90610173     0.36400
C646        C  0.43205493  0.80505475  0.90556995    -0.05800
C647        C  0.40611763  0.82162492  0.92096751    -0.32700
C648        C  0.42781596  0.86473569  0.93420122     0.36300
H649        H  0.03941672  0.89225046  0.91877076     0.16700
O650        O  0.50776164  0.81545860  0.89194341    -0.60200
H651        H  0.36865332  0.80182811  0.92181268     0.16700
O652        O  0.40107621  0.87991628  0.94879002    -0.60300
H653        H  0.38279718  0.88384601  0.93235569     0.43700
H654        H  0.01571997  0.80089025  0.90833406     0.43700
C655        C  0.20270454  0.59587410  0.90413739    -0.05400
C656        C  0.19477278  0.56291001  0.92640400    -0.32800
C657        C  0.15251102  0.54064469  0.94250869     0.36400
C658        C  0.11646502  0.55013349  0.93602866    -0.05800
C659        C  0.12531792  0.58497012  0.91517110    -0.32700
C660        C  0.16798724  0.60790130  0.89938343     0.36300
H661        H  0.22107776  0.55357726  0.93085687     0.16700
O662        O  0.14556477  0.50728096  0.96308724    -0.60200
H663        H  0.09840929  0.09258157  0.90974526     0.16700
O664        O  0.17411870  0.63991541  0.87787726    -0.60300
H665        H  0.16278643  0.12325836  0.85869663     0.43700
H666        H  0.14913160  0.52131664  0.98371663     0.43700
C667        C  0.46967207  0.53726157  0.92369574    -0.05400
C668        C  0.49702413  0.58316529  0.91606314    -0.32800
C669        C  0.47739454  0.60723616  0.90239793     0.36400
C670        C  0.42932731  0.58535483  0.89609021    -0.05800
C671        C  0.40173159  0.54030917  0.90575479    -0.32700
C672        C  0.42128612  0.51643806  0.91949064     0.36300
H673        H  0.03431733  0.59965913  0.91885002     0.16700
O674        O  0.50591448  0.65168643  0.89451916    -0.60200
H675        H  0.36460032  0.52302261  0.90241627     0.16700
O676        O  0.39309910  0.97284627  0.92974412    -0.60300
H677        H  0.37900631  0.95414734  0.91112229     0.43700
H678        H  0.01046192  0.66867884  0.91201400     0.43700
C679        C  0.28618125  0.75011834  0.76915767    -0.05400
C680        C  0.27860605  0.74432596  0.73728963    -0.32800
C681        C  0.25851194  0.76620964  0.72123664     0.36400
C682        C  0.24665683  0.79604884  0.73695122    -0.05800
C683        C  0.25521523  0.80201048  0.76878849    -0.32700
C684        C  0.27414319  0.77952790  0.78478340     0.36300
H685        H  0.28701530  0.72157424  0.72475846     0.16700
O686        O  0.24956469  0.75636987  0.69066210    -0.60200
H687        H  0.24579044  0.82365524  0.78182539     0.16700
O688        O  0.28098677  0.78713989  0.81584205    -0.60300
H689        H  0.25040660  0.76706776  0.82554334     0.43700
H690        H  0.21838105  0.72910334  0.69002486     0.43700
C691        C  0.51069358  0.75435843  0.77035281    -0.05400
C692        C  0.51585057  0.75380404  0.73811174    -0.32800
C693        C  0.05949257  0.77712475  0.72383677     0.36400
C694        C  0.09932969  0.80124639  0.74195696    -0.05800
C695        C  0.09420637  0.80350538  0.77378125    -0.32700
C696        C  0.05061341  0.78111504  0.78787969     0.36300
H697        H  0.48588927  0.73399369  0.72386684     0.16700
O698        O  0.06344456  0.77363225  0.69262877    -0.60200
H699        H  0.12456379  0.82172854  0.78802321     0.16700
O700        O  0.04815589  0.78505688  0.81920011    -0.60300
H701        H  0.04261385  0.81099240  0.82231813     0.43700
H702        H  0.06250054  0.80005788  0.68378085     0.43700
C703        C  0.27510277  0.52261971  0.76281887    -0.05400
C704        C  0.23191182  0.98688657  0.77299237    -0.32800
C705        C  0.21106799  0.94477906  0.75814862     0.36400
C706        C  0.23350670  0.93708513  0.73311964    -0.05800
C707        C  0.27544705  0.97304132  0.72206126    -0.32700
C708        C  0.29595328  0.01562147  0.73655305     0.36300
H709        H  0.21603438  0.49090118  0.79369570     0.16700
O710        O  0.17086887  0.91016956  0.77009946    -0.60200
H711        H  0.29344859  0.96738981  0.70307013     0.16700
O712        O  0.33710739  0.55018603  0.72507071    -0.60300
H713        H  0.36143868  0.04523099  0.73725823     0.43700
H714        H  0.14569402  0.91057627  0.75819709     0.43700
O715        O  0.93009822  0.24380607  0.87798985    -0.78400
C716        C  0.90745953  0.10816435  0.87930664     0.82600
O717        O  0.92723275  0.20701473  0.77057958    -0.79500
O718        O  0.79406514  0.06001323  0.81119966    -0.81000
O719        O  0.76374892  0.15665293  0.87588831    -0.80800
O720        O  0.86674084  0.25049113  0.87833263    -0.79400
Zn721      Zn  0.91785319  0.19340448  0.84918303     1.55700
O722        O  0.76460524  0.09157642  0.87816281    -0.80800
Cd723      Cd  0.82295874  0.19790555  0.85043596     1.59700
Cd724      Cd  0.85767126  0.16964118  0.78675097     1.59600
O725        O  0.80380918  0.22506173  0.81523944    -0.80800
O726        O  0.85523827  0.16588904  0.83349707    -1.91300
Cd727      Cd  0.82024528  0.10236032  0.84908796     1.59900
O728        O  0.82366444  0.20456791  0.77138975    -0.80800
O729        O  0.86436775  0.08569005  0.87288295    -0.79400
C730        C  0.96479845  0.22625201  0.78602720     0.83100
C731        C  0.90814723  0.26383633  0.88674464     0.82700
O732        O  0.93184706  0.14940251  0.87124408    -0.78400
C733        C  0.74631740  0.11597225  0.88530841     0.83600
O734        O  0.96396090  0.22217277  0.81513998    -0.78500
C735        C  0.80568134  0.22513017  0.78595697     0.83700
C736        C  0.79899500  0.06443857  0.78196543     0.84000
O737        O  0.82351256  0.10312018  0.76907054    -0.80900
C738        C  0.72076875  0.31914645  0.72323572     0.86600
C739        C  0.67223331  0.29842611  0.73789806    -0.53700
C740        C  0.64675058  0.31801270  0.72940239     0.09500
C741        C  0.67227704  0.35783232  0.70686343     0.20400
C742        C  0.71191880  0.31754803  0.68841899    -0.54400
C743        C  0.68616285  0.33718959  0.67993382     0.09600
C744        C  0.74380702  0.36992661  0.73080312    -0.53900
C745        C  0.71861725  0.39017611  0.72277166     0.10200
H746        H  0.65887635  0.27002991  0.75380319     0.14700
H747        H  0.65160211  0.37399909  0.70003820     0.00400
H748        H  0.72249263  0.30113236  0.67136950     0.15000
H749        H  0.77650948  0.38803308  0.74286500     0.14800
C750        C  0.99846769  0.44220303  0.94178567     0.86600
C751        C  0.55041653  0.47305474  0.93576264    -0.53700
C752        C  0.56796502  0.01655597  0.94460006     0.09500
C753        C  0.53054520  0.02643575  0.95882785     0.20400
C754        C  0.99157917  0.44775067  0.97602168    -0.54400
C755        C  0.50751261  0.99116166  0.98498817     0.09600
C756        C  0.97665867  0.46678099  0.92503354    -0.53900
C757        C  0.99173996  0.01068453  0.93482813     0.10200
H758        H  0.57238844  0.46275739  0.92371194     0.14700
H759        H  0.54375455  0.06198110  0.96639540     0.00400
H760        H  0.97282319  0.41917411  0.99147820     0.15000
H761        H  0.95072795  0.45057830  0.90730890     0.14800
O762        O  0.99688883  0.41164947  0.46242112    -0.78400
C763        C  0.60750846  0.05100685  0.45259003     0.82600
O764        O  0.52114235  0.46222044  0.56677468    -0.79500
O765        O  0.54074806  0.10092205  0.51712045    -0.81000
O766        O  0.91791791  0.99930791  0.45311265    -0.80800
O767        O  0.92916231  0.40856565  0.45456406    -0.79400
Zn768      Zn  0.53411944  0.46718006  0.48798546     1.55700
O769        O  0.98279827  0.06563667  0.45162643    -0.80800
Cd770      Cd  0.93387093  0.46041406  0.48069056     1.59700
Cd771      Cd  0.98775930  0.49330081  0.54561716     1.59600
O772        O  0.88262406  0.43399546  0.51326658    -0.80800
O773        O  0.99611026  0.49417227  0.49934473    -1.91300
Cd774      Cd  0.52548955  0.05630526  0.48162901     1.59900
O775        O  0.91658805  0.45896925  0.55844490    -0.80800
O776        O  0.58600220  0.07271606  0.45812335    -0.79400
C777        C  0.54810436  0.44889753  0.55523928     0.83100
C778        C  0.95653372  0.39273043  0.45077169     0.82700
O779        O  0.59167883  0.01053870  0.46218156    -0.78400
C780        C  0.94079070  0.04003771  0.44396267     0.83600
O781        O  0.55591711  0.45038001  0.52634391    -0.78500
C782        C  0.87998639  0.43728276  0.54226533     0.83700
C783        C  0.53567895  0.09865765  0.54626772     0.84000
O784        O  0.51721250  0.06088815  0.56073731    -0.80900
C785        C  0.86934376  0.21370901  0.39593158     0.86600
C786        C  0.88943020  0.18229106  0.40155620    -0.53700
C787        C  0.86294184  0.13949406  0.39059776     0.09500
C788        C  0.81780481  0.13132023  0.37488665     0.20400
C789        C  0.86175109  0.21131571  0.36118808    -0.54400
C790        C  0.83453127  0.16868232  0.35013704     0.09600
C791        C  0.82070347  0.18844270  0.41027381    -0.53900
C792        C  0.79287755  0.14566936  0.39915639     0.10200
H793        H  0.92112253  0.19134268  0.41366305     0.14700
H794        H  0.79640207  0.09677552  0.36540125     0.00400
H795        H  0.87511362  0.24115384  0.34659727     0.15000
H796        H  0.80932301  0.20376409  0.42787276     0.14800
C797        C  0.62248155  0.27476626  0.60747520     0.86600
C798        C  0.66889019  0.30003260  0.59002464    -0.53700
C799        C  0.69605874  0.34427391  0.59820796     0.09500
C800        C  0.67392877  0.36009844  0.62327117     0.20400
C801        C  0.63591574  0.28201347  0.64158557    -0.54400
C802        C  0.66322997  0.32622891  0.64972630     0.09600
C803        C  0.59912668  0.30374065  0.60276483    -0.53900
C804        C  0.62580074  0.34838048  0.61045620     0.10200
H805        H  0.67985186  0.28361864  0.57294876     0.14700
H806        H  0.69575596  0.39610310  0.63004505     0.00400
H807        H  0.62599527  0.25587819  0.65870154     0.15000
H808        H  0.56501482  0.29044658  0.59269301     0.14800
O809        O  0.66047553  0.25261977  0.20564718    -0.78400
C810        C  0.54005084  0.26738780  0.21536307     0.82600
O811        O  0.62104388  0.26792270  0.10061791    -0.79500
O812        O  0.59150422  0.38349563  0.15237018    -0.81000
O813        O  0.72505916  0.41397141  0.21218926    -0.80800
O814        O  0.72760205  0.31727494  0.20771375    -0.79400
Zn815      Zn  0.61848566  0.26492627  0.17941007     1.55700
O816        O  0.65691607  0.41135158  0.21514593    -0.80800
Cd817      Cd  0.71273574  0.36064604  0.18341125     1.59700
Cd818      Cd  0.64862577  0.33298407  0.12069266     1.59600
O819        O  0.75895710  0.38913594  0.14749457    -0.80800
O820        O  0.64809794  0.32824309  0.16726110    -1.91300
Cd821      Cd  0.61431018  0.35721786  0.18674574     1.59900
O822        O  0.71715120  0.37274247  0.10464121    -0.80800
O823        O  0.55766038  0.31016183  0.21236269    -0.79400
C824        C  0.60714538  0.22924319  0.11321201     0.83100
C825        C  0.70229266  0.27556779  0.21431710     0.82700
O826        O  0.55882759  0.24605053  0.20312785    -0.78400
C827        C  0.69962072  0.42967528  0.22227186     0.83600
O828        O  0.60515902  0.22470024  0.14236614    -0.78500
C829        C  0.75609495  0.39225986  0.11846140     0.83700
C830        C  0.59274641  0.38474932  0.12296225     0.84000
O831        O  0.61156640  0.36584486  0.10734186    -0.80900
C832        C  0.93727291  0.48633830  0.05734986     0.86600
C833        C  0.96813555  0.03703742  0.06486143    -0.53700
C834        C  0.51298921  0.05431203  0.05705948     0.09500
C835        C  0.52557389  0.01974340  0.04299376     0.20400
C836        C  0.94674529  0.48288253  0.02281472    -0.54400
C837        C  0.49290671  0.99988338  0.01538763     0.09600
C838        C  0.96147457  0.46398470  0.07397398    -0.53900
C839        C  0.50705060  0.48032403  0.06680748     0.10200
H840        H  0.95463741  0.05756184  0.07504860     0.14700
H841        H  0.56282660  0.03397799  0.03705180     0.00400
H842        H  0.92045558  0.46806686  0.00529122     0.15000
H843        H  0.94355802  0.43607501  0.09005529     0.14800
C844        C  0.78746096  0.18179165  0.27334823     0.86600
C845        C  0.76219578  0.13098553  0.26646206    -0.53700
C846        C  0.78443824  0.10841103  0.27603037     0.09500
C847        C  0.83073834  0.13942097  0.29249888     0.20400
C848        C  0.79470555  0.18428152  0.30835208    -0.54400
C849        C  0.81732521  0.16224755  0.31834015     0.09600
C850        C  0.83622504  0.20005508  0.25983496    -0.53900
C851        C  0.85896050  0.17835578  0.26959038     0.10200
H852        H  0.72959818  0.11441244  0.25418719     0.14700
H853        H  0.84954712  0.12211859  0.30086147     0.00400
H854        H  0.78506776  0.20293762  0.32428115     0.15000
H855        H  0.85197675  0.22863131  0.24407580     0.14800
C856        C  0.88706557  0.46587729  0.06944116    -0.05400
C857        C  0.88076604  0.47842379  0.09938923    -0.32800
C858        C  0.83816903  0.45607940  0.11482620     0.36400
C859        C  0.79982160  0.41954313  0.10079011    -0.05800
C860        C  0.80489377  0.40747848  0.07064265    -0.32700
C861        C  0.84801581  0.42932861  0.05525959     0.36300
H862        H  0.90978230  0.50464695  0.11181453     0.16700
O863        O  0.83450054  0.47039941  0.14381936    -0.60200
H864        H  0.77597985  0.37907725  0.05958701     0.16700
O865        O  0.85153686  0.41233322  0.02734621    -0.60300
H866        H  0.86089005  0.38940216  0.03215649     0.43700
H867        H  0.84851638  0.45745327  0.15775353     0.43700
C868        C  0.59150515  0.18778401  0.09412007    -0.05400
C869        C  0.56285091  0.18035727  0.06867669    -0.32800
C870        C  0.54004114  0.13770733  0.05442308     0.36400
C871        C  0.54630537  0.10193750  0.06522362    -0.05800
C872        C  0.57843895  0.11058494  0.08855155    -0.32700
C873        C  0.60057633  0.15293523  0.10324392     0.36300
H874        H  0.55559573  0.20663998  0.06118665     0.16700
O875        O  0.50928634  0.13041322  0.03129002    -0.60200
H876        H  0.08415668  0.08364116  0.09821374     0.16700
O877        O  0.63036426  0.15971160  0.12694545    -0.60300
H878        H  0.11005355  0.14473394  0.14600658     0.43700
H879        H  0.52649359  0.13277288  0.01191108     0.43700
C880        C  0.53363662  0.45988669  0.08007324    -0.05400
C881        C  0.54608388  0.43324124  0.06176608    -0.32800
C882        C  0.56537496  0.40847732  0.07506526     0.36400
C883        C  0.57259567  0.41026469  0.10724024    -0.05800
C884        C  0.56071453  0.43786708  0.12517231    -0.32700
C885        C  0.54114795  0.46203201  0.11193706     0.36300
H886        H  0.53933898  0.43038297  0.03726063     0.16700
O887        O  0.57506939  0.38125507  0.05657764    -0.60200
H888        H  0.56623908  0.44065435  0.14980699     0.16700
O889        O  0.52961595  0.48801273  0.13038338    -0.60300
H890        H  0.49894982  0.46661656  0.13940911     0.43700
H891        H  0.60609548  0.40164100  0.04754201     0.41300
C892        C  0.76350695  0.20591448  0.25920600    -0.05400
C893        C  0.74995911  0.23287149  0.27658976    -0.32800
C894        C  0.73012863  0.25613411  0.26226778     0.36400
C895        C  0.72283747  0.25209558  0.23038890    -0.05800
C896        C  0.73568921  0.22531342  0.21303226    -0.32700
C897        C  0.75606347  0.20261946  0.22699908     0.36300
H898        H  0.75494950  0.23700842  0.30110746     0.16700
O899        O  0.71719620  0.28199298  0.27967202    -0.60200
H900        H  0.73046982  0.22245647  0.18834106     0.16700
O901        O  0.77014629  0.17838101  0.20874711    -0.60300
H902        H  0.74131214  0.15082064  0.20255958     0.43700
H903        H  0.74446067  0.31293382  0.27935237     0.43700
C904        C  0.72104754  0.47155639  0.24144248    -0.05400
C905        C  0.77050091  0.99920350  0.24199331    -0.32800
C906        C  0.79193009  0.04204109  0.25600458     0.36400
C907        C  0.76474562  0.05930240  0.26898742    -0.05800
C908        C  0.71647462  0.03078903  0.27082237    -0.32700
C909        C  0.69396957  0.48733870  0.25669764     0.36300
H910        H  0.79217699  0.98795257  0.23046083     0.16700
O911        O  0.83918249  0.06791536  0.25467959    -0.60200
H912        H  0.69492759  0.04269417  0.28176256     0.16700
O913        O  0.64664292  0.46134681  0.25822444    -0.60300
H914        H  0.63482385  0.47364469  0.24215072     0.43700
H915        H  0.85064142  0.05682162  0.27174874     0.43700
C916        C  0.90743555  0.19491065  0.25963577    -0.05400
C917        C  0.94267398  0.23446242  0.27312072    -0.32800
C918        C  0.48536303  0.25949695  0.25882490     0.36400
C919        C  0.49579636  0.24151755  0.23251787    -0.05800
C920        C  0.96136968  0.20124706  0.21902248    -0.32700
C921        C  0.91705332  0.17846030  0.23235528     0.36300
H922        H  0.93525972  0.24831246  0.29357278     0.16700
O923        O  0.51731633  0.30064915  0.27059000    -0.60200
H924        H  0.96778417  0.18857280  0.19764135     0.16700
O925        O  0.88256139  0.14202414  0.21733188    -0.60300
H926        H  0.86792300  0.15483539  0.20379686     0.43700
H927        H  0.53662566  0.29393153  0.28458497     0.43700
C928        C  0.74301852  0.11892583  0.40895477    -0.05400
C929        C  0.71894771  0.14245309  0.41580112    -0.32800
C930        C  0.67481046  0.12081004  0.42919659     0.36400
C931        C  0.65254903  0.07395238  0.43552029    -0.05800
C932        C  0.67491547  0.04956772  0.42650818    -0.32700
C933        C  0.71976881  0.07157513  0.41340428     0.36300
H934        H  0.73480334  0.17844831  0.41135220     0.16700
O935        O  0.65433714  0.14634159  0.43649486    -0.60200
H936        H  0.65815125  0.01335596  0.43033778     0.16700
O937        O  0.74055717  0.04656272  0.40546044    -0.60300
H938        H  0.73949407  0.02944453  0.42419590     0.43700
H939        H  0.66566699  0.15849999  0.45738640     0.43700
C940        C  0.89620838  0.26226832  0.40764279    -0.05400
C941        C  0.93690263  0.27811210  0.42511905    -0.32800
C942        C  0.95812453  0.32122591  0.43821453     0.36400
C943        C  0.93948216  0.35004316  0.43358085    -0.05800
C944        C  0.90064856  0.33559392  0.41472901    -0.32700
C945        C  0.87877083  0.29218251  0.40215847     0.36300
H946        H  0.95224402  0.25738502  0.43011164     0.16700
O947        O  0.99589500  0.33388725  0.45665854    -0.60200
H948        H  0.88598342  0.35742564  0.41055858     0.16700
O949        O  0.83975072  0.27898060  0.38484755    -0.60300
H950        H  0.81446434  0.27226910  0.39989017     0.43700
H951        H  0.48014612  0.32019709  0.47902032     0.43700
C952        C  0.91709259  0.05868526  0.42540060    -0.05400
C953        C  0.94135852  0.09054658  0.40223350    -0.32800
C954        C  0.92141269  0.11355394  0.38777262     0.36400
C955        C  0.87698827  0.10528234  0.39681940    -0.05800
C956        C  0.85193317  0.07179741  0.41874452    -0.32700
C957        C  0.87125498  0.04794819  0.43266618     0.36300
H958        H  0.97642173  0.09881402  0.39614437     0.16700
O959        O  0.94637107  0.14583278  0.36594962    -0.60200
H960        H  0.81922771  0.06713372  0.42730609     0.16700
O961        O  0.84700035  0.01794249  0.45581385    -0.60300
H962        H  0.82833156  0.49810253  0.45663599     0.43700
H963        H  0.96979547  0.17240846  0.37754128     0.43700
C964        C  0.83272494  0.41556843  0.55677680    -0.05400
C965        C  0.82713299  0.41765546  0.58882823    -0.32800
C966        C  0.78277638  0.39637139  0.60261841     0.36400
C967        C  0.74302020  0.37231304  0.58440733    -0.05800
C968        C  0.74842175  0.37129967  0.55244497    -0.32700
C969        C  0.79228510  0.39281460  0.53858221     0.36300
H970        H  0.85720201  0.43523641  0.60336937     0.16700
O971        O  0.77885198  0.39799781  0.63398952    -0.60200
H972        H  0.71823644  0.35325279  0.53801942     0.16700
O973        O  0.79486705  0.39039989  0.50713638    -0.60300
H974        H  0.79064504  0.91023866  0.49821500     0.43700
H975        H  0.78452976  0.37387221  0.64202924     0.43700
C976        C  0.55266658  0.14175698  0.56340367    -0.05400
C977        C  0.56533718  0.14450088  0.59432320    -0.32800
C978        C  0.58665001  0.18610537  0.60990127     0.36400
C979        C  0.59425167  0.22639283  0.59477569    -0.05800
C980        C  0.57947524  0.22256859  0.56407561    -0.32700
C981        C  0.55926247  0.18132063  0.54847104     0.36300
H982        H  0.56097034  0.11456118  0.60614089     0.16700
O983        O  0.60168308  0.18626638  0.63911571    -0.60200
H984        H  0.58531366  0.25244372  0.55146691     0.16700
O985        O  0.05486656  0.18236692  0.51650090    -0.60300
H986        H  0.08517816  0.19226183  0.50615122     0.43700
H987        H  0.63329517  0.19039620  0.63654724     0.43700
C988        C  0.57082108  0.43015889  0.57513998    -0.05400
C989        C  0.61703031  0.44163164  0.56889795    -0.32800
C990        C  0.63694689  0.41799552  0.58265962     0.36400
C991        C  0.61038035  0.38163061  0.60269210    -0.05800
C992        C  0.56517871  0.37215041  0.61055500    -0.32700
C993        C  0.54558763  0.39650347  0.59728037     0.36300
H994        H  0.63713081  0.46768082  0.55209981     0.16700
O995        O  0.68116356  0.42847227  0.57446431    -0.60200
H996        H  0.54412997  0.34413800  0.62582929     0.16700
O997        O  0.50030487  0.38401936  0.60374871    -0.60300
H998        H  0.50129348  0.40025984  0.62302991     0.43700
H999        H  0.67774962  0.41007407  0.55584444     0.43700
C1000       C  0.97632789  0.39260640  0.93211154    -0.05400
C1001       C  0.00241604  0.37386499  0.91939459    -0.32800
C1002       C  0.98078547  0.33084305  0.90616632     0.36400
C1003       C  0.93206574  0.30516925  0.90565000    -0.05800
C1004       C  0.90606624  0.32158762  0.92114573    -0.32700
C1005       C  0.92769304  0.36465218  0.93446145     0.36300
H1006       H  0.53975943  0.39299830  0.91765142     0.16700
O1007       O  0.00781053  0.31581696  0.89187700    -0.60200
H1008       H  0.86860864  0.30170459  0.92200717     0.16700
O1009       O  0.90089977  0.37968897  0.94914316    -0.60300
H1010       H  0.88266413  0.38375837  0.93274213     0.43700
H1011       H  0.51683566  0.30206800  0.90690414     0.43700
C1012       C  0.70321214  0.09622651  0.90451336    -0.05400
C1013       C  0.69500483  0.06260748  0.92631446    -0.32800
C1014       C  0.65270557  0.04015024  0.94234996     0.36400
C1015       C  0.61685560  0.05007382  0.93623201    -0.05800
C1016       C  0.62607444  0.08568309  0.91599353    -0.32700
C1017       C  0.66880503  0.10882467  0.90029489     0.36300
H1018       H  0.72109915  0.05287747  0.93042361     0.16700
O1019       O  0.64553381  0.00621743  0.96247938    -0.60200
H1020       H  0.59744873  0.59129118  0.90794576     0.16700
O1021       O  0.67528223  0.14165810  0.87938532    -0.60300
H1022       H  0.66226852  0.62051880  0.85678624     0.43700
H1023       H  0.64882344  0.01965877  0.98329390     0.43700
C1024       C  0.96992421  0.03740868  0.92375745    -0.05400
C1025       C  0.99729229  0.08324536  0.91597690    -0.32800
C1026       C  0.97765230  0.10727606  0.90226586     0.36400
C1027       C  0.92953676  0.08544078  0.89611944    -0.05800
C1028       C  0.90193859  0.04046760  0.90591962    -0.32700
C1029       C  0.92151739  0.01662109  0.91965638     0.36300
H1030       H  0.53450141  0.09958594  0.91855946     0.16700
O1031       O  0.00621029  0.15162047  0.89415232    -0.60200
H1032       H  0.86478616  0.02321638  0.90268422     0.16700
O1033       O  0.89282069  0.47293880  0.92972348    -0.60300
H1034       H  0.87878402  0.45426764  0.91108318     0.43700
H1035       H  0.51061806  0.16857543  0.91164770     0.43700
C1036       C  0.78636860  0.25017350  0.76892048    -0.05400
C1037       C  0.77708515  0.24305651  0.73727952    -0.32800
C1038       C  0.75681986  0.26487077  0.72130623     0.36400
C1039       C  0.74672900  0.29611432  0.73679319    -0.05800
C1040       C  0.75674980  0.30317473  0.76842090    -0.32700
C1041       C  0.77586679  0.28079765  0.78435847     0.36300
H1042       H  0.78410974  0.21921068  0.72494397     0.16700
O1043       O  0.74559777  0.25333998  0.69113970    -0.60200
H1044       H  0.74840344  0.32566020  0.78137180     0.16700
O1045       O  0.78449773  0.28975406  0.81516785    -0.60300
H1046       H  0.75429155  0.27077106  0.82565070     0.43700
H1047       H  0.71369054  0.22712492  0.69162913     0.43700
C1048       C  0.01096246  0.25418479  0.77060817    -0.05400
C1049       C  0.01614628  0.25361028  0.73837338    -0.32800
C1050       C  0.55949200  0.27699533  0.72393185     0.36400
C1051       C  0.59933240  0.30122000  0.74204110    -0.05800
C1052       C  0.59418267  0.30349930  0.77386290    -0.32700
C1053       C  0.55058047  0.28106213  0.78796447     0.36300
H1054       H  0.98619697  0.23380091  0.72411909     0.16700
O1055       O  0.56345485  0.27343520  0.69273136    -0.60200
H1056       H  0.62452950  0.32179272  0.78810285     0.16700
O1057       O  0.54811572  0.28503207  0.81928129    -0.60300
H1058       H  0.54264546  0.31101447  0.82238180     0.43700
H1059       H  0.56249572  0.29983305  0.68384373     0.43700
C1060       C  0.77528025  0.02261495  0.76298774    -0.05400
C1061       C  0.73210570  0.48705051  0.77273587    -0.32800
C1062       C  0.71121493  0.44491913  0.75793458     0.36400
C1063       C  0.73348718  0.43722539  0.73281168    -0.05800
C1064       C  0.77522324  0.47325251  0.72154919    -0.32700
C1065       C  0.79573048  0.51590064  0.73596841     0.36300
H1066       H  0.71572703  0.99122230  0.79347940     0.16700
O1067       O  0.67113961  0.41028964  0.77000811    -0.60200
H1068       H  0.79305768  0.46762736  0.70244016     0.16700
O1069       O  0.83794807  0.04977283  0.72576471    -0.60300
H1070       H  0.86124440  0.54583066  0.73615343     0.43700
H1071       H  0.64585904  0.41044889  0.75808100     0.43700
O1072       O  0.93031544  0.74391839  0.87778725    -0.78400
C1073       C  0.90744561  0.60762198  0.87886913     0.82600
O1074       O  0.92689692  0.70659161  0.77039218    -0.79500
O1075       O  0.79407248  0.55973614  0.81078278    -0.81000
O1076       O  0.76335367  0.65578043  0.87535543    -0.80800
O1077       O  0.86652556  0.74983519  0.87857324    -0.79400
Zn1078     Zn  0.91789403  0.69316608  0.84906561     1.55700
O1079       O  0.76420046  0.59068946  0.87772578    -0.80800
Cd1080     Cd  0.82299539  0.69739026  0.85046108     1.59700
Cd1081     Cd  0.85757731  0.66929878  0.78668328     1.59600
O1082       O  0.80429747  0.72504635  0.81540638    -0.80800
O1083       O  0.85525630  0.66546554  0.83341262    -1.91300
Cd1084     Cd  0.82016471  0.60181815  0.84879091     1.59900
O1085       O  0.82386687  0.70444766  0.77150088    -0.80800
O1086       O  0.86437081  0.58510151  0.87239904    -0.79400
C1087       C  0.96449186  0.72588835  0.78577496     0.83100
C1088       C  0.90813824  0.76366597  0.88671533     0.82700
O1089       O  0.93177513  0.64897567  0.87101872    -0.78400
C1090       C  0.74576724  0.61503504  0.88466032     0.83600
O1091       O  0.96380684  0.72180978  0.81488600    -0.78500
C1092       C  0.80613703  0.72517027  0.78613254     0.83700
C1093       C  0.79885530  0.56431148  0.78155320     0.84000
O1094       O  0.82333699  0.60303231  0.76873286    -0.80900
C1095       C  0.72132439  0.81917579  0.72344419     0.86600
C1096       C  0.67276726  0.79843686  0.73811887    -0.53700
C1097       C  0.64726390  0.81800439  0.72961798     0.09500
C1098       C  0.67279883  0.85779942  0.70705723     0.20400
C1099       C  0.71245299  0.81752349  0.68862155    -0.54400
C1100       C  0.68661131  0.83704799  0.68011628     0.09600
C1101       C  0.74434739  0.86993719  0.73100691    -0.53900
C1102       C  0.71916056  0.89018666  0.72299481     0.10200
H1103       H  0.65941829  0.77004708  0.75402891     0.14700
H1104       H  0.65212252  0.87396005  0.70022623     0.00400
H1105       H  0.72294934  0.80105322  0.67157356     0.15000
H1106       H  0.77701680  0.88801538  0.74311208     0.14800
C1107       C  0.99815332  0.94239032  0.94180795     0.86600
C1108       C  0.55079722  0.97254459  0.93585396    -0.53700
C1109       C  0.56757964  0.51703086  0.94447588     0.09500
C1110       C  0.53033073  0.52684486  0.95905992     0.20400
C1111       C  0.99138173  0.94776797  0.97611022    -0.54400
C1112       C  0.50772771  0.49162113  0.98530736     0.09600
C1113       C  0.97644924  0.96722294  0.92526543    -0.53900
C1114       C  0.99181077  0.51027606  0.93442785     0.10200
H1115       H  0.57274874  0.96207963  0.92394498     0.14700
H1116       H  0.54363143  0.56239928  0.96663661     0.00400
H1117       H  0.97258715  0.91910307  0.99148957     0.15000
H1118       H  0.95050681  0.95121791  0.90752692     0.14800
O1119       O  0.99728873  0.91107857  0.46306731    -0.78400
C1120       C  0.60749390  0.55036666  0.45364602     0.82600
O1121       O  0.52320768  0.96278284  0.56634728    -0.79500
O1122       O  0.53919351  0.60004978  0.51700753    -0.81000
O1123       O  0.91688448  0.49967331  0.45416105    -0.80800
O1124       O  0.92968979  0.90818915  0.45492810    -0.79400
Zn1125     Zn  0.53489652  0.96801477  0.48757465     1.55700
O1126       O  0.98168982  0.56618529  0.45252239    -0.80800
Cd1127     Cd  0.93418227  0.96031521  0.48057665     1.59700
Cd1128     Cd  0.98750627  0.99341423  0.54575227     1.59600
O1129       O  0.88257121  0.93439462  0.51299780    -0.80800
O1130       O  0.99624219  0.99386736  0.49951297    -1.91300
Cd1131     Cd  0.52467620  0.55545357  0.48158527     1.59900
O1132       O  0.91634259  0.95877071  0.55830675    -0.80800
O1133       O  0.58579848  0.57193659  0.45897908    -0.79400
C1134       C  0.54979956  0.94924440  0.55448296     0.83100
C1135       C  0.95703044  0.89229531  0.45125617     0.82700
O1136       O  0.59147209  0.50976433  0.46301306    -0.78400
C1137       C  0.93954136  0.54051589  0.44523578     0.83600
O1138       O  0.55720896  0.95080398  0.52552744    -0.78500
C1139       C  0.87982602  0.93730892  0.54203135     0.83700
C1140       C  0.53394161  0.59802327  0.54613643     0.84000
O1141       O  0.51526177  0.56027948  0.56063609    -0.80900
C1142       C  0.86931441  0.71382994  0.39572601     0.86600
C1143       C  0.88907465  0.68210684  0.40134586    -0.53700
C1144       C  0.86187331  0.63918201  0.39087585     0.09500
C1145       C  0.81680406  0.63121930  0.37535988     0.20400
C1146       C  0.86120209  0.71096558  0.36102925    -0.54400
C1147       C  0.83347094  0.66818751  0.35034483     0.09600
C1148       C  0.82080410  0.68914316  0.41039380    -0.53900
C1149       C  0.79262848  0.64618070  0.39970970     0.10200
H1150       H  0.92096371  0.69096429  0.41314731     0.14700
H1151       H  0.79499032  0.59654728  0.36618096     0.00400
H1152       H  0.87464381  0.74056407  0.34620349     0.15000
H1153       H  0.80986775  0.70485388  0.42798961     0.14800
C1154       C  0.62235306  0.77404422  0.60779961     0.86600
C1155       C  0.66892018  0.79910147  0.59042195    -0.53700
C1156       C  0.69618331  0.84343161  0.59841848     0.09500
C1157       C  0.67410253  0.85945186  0.62339265     0.20400
C1158       C  0.63624550  0.78139559  0.64186023    -0.54400
C1159       C  0.66338952  0.82572981  0.64996141     0.09600
C1160       C  0.59928508  0.80320084  0.60293574    -0.53900
C1161       C  0.62611527  0.84782310  0.61049950     0.10200
H1162       H  0.67984280  0.78248324  0.57348282     0.14700
H1163       H  0.69589406  0.89550951  0.63004386     0.00400
H1164       H  0.62805984  0.75530129  0.65872212     0.15000
H1165       H  0.56535655  0.79005723  0.59260068     0.14800
O1166       O  0.66027118  0.75321196  0.20628254    -0.78400
C1167       C  0.54011679  0.76785036  0.21497417     0.82600
O1168       O  0.62215273  0.76829325  0.10087047    -0.79500
O1169       O  0.59218941  0.88419772  0.15198585    -0.81000
O1170       O  0.72538713  0.91441891  0.21226157    -0.80800
O1171       O  0.72762790  0.81760167  0.20818857    -0.79400
Zn1172     Zn  0.61886792  0.76562469  0.17958519     1.55700
O1173       O  0.65742070  0.91223764  0.21504699    -0.80800
Cd1174     Cd  0.71299421  0.86096572  0.18371353     1.59700
Cd1175     Cd  0.64928579  0.83341264  0.12079962     1.59600
O1176       O  0.75946750  0.88920184  0.14798027    -0.80800
O1177       O  0.64848983  0.82885848  0.16738301    -1.91300
Cd1178     Cd  0.61465869  0.85793868  0.18666916     1.59900
O1179       O  0.71791831  0.87304361  0.10501955    -0.80800
O1180       O  0.55776850  0.81068474  0.21220848    -0.79400
C1181       C  0.60840210  0.72972239  0.11359666     0.83100
C1182       C  0.70209369  0.77599127  0.21493808     0.82700
O1183       O  0.55894411  0.74661174  0.20271172    -0.78400
C1184       C  0.70012621  0.93039234  0.22219823     0.83600
O1185       O  0.60619204  0.72536284  0.14275318    -0.78500
C1186       C  0.75677358  0.89236205  0.11894420     0.83700
C1187       C  0.59354499  0.88534157  0.12256511     0.84000
O1188       O  0.61231754  0.86626598  0.10707117    -0.80900
C1189       C  0.93793669  0.98625650  0.05798371     0.86600
C1190       C  0.96719321  0.53724225  0.06398159    -0.53700
C1191       C  0.51438952  0.55489491  0.05759418     0.09500
C1192       C  0.52606183  0.51971506  0.04349820     0.20400
C1193       C  0.94723188  0.98311118  0.02338424    -0.54400
C1194       C  0.49339033  0.50046611  0.01579957     0.09600
C1195       C  0.96185997  0.96345870  0.07433155    -0.53900
C1196       C  0.50737449  0.98039650  0.06629543     0.10200
H1197       H  0.95348803  0.55764838  0.07407769     0.14700
H1198       H  0.56324856  0.53329962  0.03762777     0.00400
H1199       H  0.92079899  0.96863960  0.00591800     0.15000
H1200       H  0.94383072  0.93548592  0.09035391     0.14800
C1201       C  0.78645358  0.68125596  0.27364368     0.86600
C1202       C  0.76132850  0.63053804  0.26643886    -0.53700
C1203       C  0.78341769  0.60781464  0.27606224     0.09500
C1204       C  0.82954733  0.63870664  0.29278243     0.20400
C1205       C  0.79329240  0.68334486  0.30866848    -0.54400
C1206       C  0.81586895  0.66129242  0.31864853     0.09600
C1207       C  0.83540977  0.69973285  0.26038410    -0.53900
C1208       C  0.85804375  0.67790270  0.27010173     0.10200
H1209       H  0.72889921  0.61414974  0.25396772     0.14700
H1210       H  0.84830215  0.62139443  0.30121249     0.00400
H1211       H  0.78376410  0.70206383  0.32461385     0.15000
H1212       H  0.85136989  0.72856552  0.24484732     0.14800
C1213       C  0.88778606  0.96588314  0.07007168    -0.05400
C1214       C  0.88140664  0.97857682  0.09995723    -0.32800
C1215       C  0.83882841  0.95614194  0.11539646     0.36400
C1216       C  0.80058149  0.91947884  0.10138116    -0.05800
C1217       C  0.80580882  0.90709647  0.07136936    -0.32700
C1218       C  0.84895728  0.92890761  0.05605547     0.36300
H1219       H  0.91033941  0.00491916  0.11236756     0.16700
O1220       O  0.83509366  0.97046335  0.14437669    -0.60200
H1221       H  0.77701800  0.87846231  0.06040531     0.16700
O1222       O  0.85278588  0.91146647  0.02839991    -0.60300
H1223       H  0.86278265  0.88912352  0.03358203     0.43700
H1224       H  0.84909395  0.95752921  0.15833504     0.43700
C1225       C  0.59311829  0.68815923  0.09466875    -0.05400
C1226       C  0.56582410  0.68111863  0.06853245    -0.32800
C1227       C  0.54313975  0.63848769  0.05426326     0.36400
C1228       C  0.54824190  0.60235114  0.06571507    -0.05800
C1229       C  0.57908274  0.61053606  0.08982716    -0.32700
C1230       C  0.60104381  0.65286640  0.10454841     0.36300
H1231       H  0.55939743  0.70769751  0.06048903     0.16700
O1232       O  0.51338006  0.63153562  0.03053448    -0.60200
H1233       H  0.08367922  0.58366538  0.09695262     0.16700
O1234       O  0.62941883  0.65914710  0.12904508    -0.60300
H1235       H  0.11009903  0.64418701  0.14508633     0.43700
H1236       H  0.53089347  0.63276937  0.01154340     0.43700
C1237       C  0.53457751  0.96048798  0.07939731    -0.05400
C1238       C  0.54624621  0.93312080  0.06122683    -0.32800
C1239       C  0.56559964  0.90843043  0.07458989     0.36400
C1240       C  0.57359236  0.91095678  0.10669652    -0.05800
C1241       C  0.56255492  0.93932071  0.12445480    -0.32700
C1242       C  0.54296407  0.96343164  0.11116443     0.36300
H1243       H  0.53876146  0.92958474  0.03681707     0.16700
O1244       O  0.57445829  0.88047000  0.05627804    -0.60200
H1245       H  0.56869257  0.94268990  0.14901996     0.16700
O1246       O  0.53205345  0.98997660  0.12949246    -0.60300
H1247       H  0.50128774  0.96899411  0.13857345     0.43700
H1248       H  0.60546079  0.90032907  0.04701998     0.41300
C1249       C  0.76262603  0.70556983  0.25959325    -0.05400
C1250       C  0.74821610  0.73170886  0.27716821    -0.32800
C1251       C  0.72856983  0.75521293  0.26294649     0.36400
C1252       C  0.72244055  0.75232048  0.23095979    -0.05800
C1253       C  0.73605408  0.72628465  0.21342081    -0.32700
C1254       C  0.75607609  0.70321830  0.22731081     0.36300
H1255       H  0.75224352  0.73492227  0.30178177     0.16700
O1256       O  0.71468082  0.78016365  0.28053236    -0.60200
H1257       H  0.73158971  0.72420823  0.18865969     0.16700
O1258       O  0.77065933  0.67951643  0.20893122    -0.60300
H1259       H  0.74201269  0.65194529  0.20249068     0.43700
H1260       H  0.74182584  0.81116802  0.28098721     0.43700
C1261       C  0.72185286  0.97236919  0.24124877    -0.05400
C1262       C  0.76966118  0.49807428  0.24289539    -0.32800
C1263       C  0.79090087  0.54088122  0.25695860     0.36400
C1264       C  0.76359918  0.55861993  0.26904979    -0.05800
C1265       C  0.71524569  0.53033800  0.27027734    -0.32700
C1266       C  0.69501413  0.98788963  0.25709990     0.36300
H1267       H  0.79151954  0.48653552  0.23197487     0.16700
O1268       O  0.83821416  0.56611357  0.25673384    -0.60200
H1269       H  0.69352096  0.54241935  0.28071292     0.16700
O1270       O  0.64773615  0.96175249  0.25904796    -0.60300
H1271       H  0.63550139  0.97406872  0.24326330     0.43700
H1272       H  0.84841831  0.55450246  0.27420761     0.43700
C1273       C  0.90676473  0.69472929  0.26054871    -0.05400
C1274       C  0.94129399  0.73566470  0.27298831    -0.32800
C1275       C  0.48668338  0.75798256  0.25963428     0.36400
C1276       C  0.49588265  0.74171756  0.23202104    -0.05800
C1277       C  0.96182010  0.69892320  0.22145357    -0.32700
C1278       C  0.91729497  0.67654196  0.23451664     0.36300
H1279       H  0.93318704  0.75081302  0.29241733     0.16700
O1280       O  0.51973527  0.79767168  0.27253641    -0.60200
H1281       H  0.96885041  0.68486084  0.20097038     0.16700
O1282       O  0.88342181  0.63891111  0.22014806    -0.60300
H1283       H  0.86880436  0.65047824  0.20556646     0.43700
H1284       H  0.53926339  0.78916278  0.28492156     0.43700
C1285       C  0.74321207  0.61928198  0.41026885    -0.05400
C1286       C  0.71882164  0.64245554  0.41710734    -0.32800
C1287       C  0.67473799  0.62050042  0.43055602     0.36400
C1288       C  0.65288466  0.57366947  0.43699400    -0.05800
C1289       C  0.67587951  0.54970715  0.42838895    -0.32700
C1290       C  0.72069817  0.57205736  0.41525466     0.36300
H1291       H  0.73430324  0.67837222  0.41247382     0.16700
O1292       O  0.65382185  0.64568884  0.43767263    -0.60200
H1293       H  0.65960809  0.51358923  0.43249843     0.16700
O1294       O  0.74223299  0.54752698  0.40785462    -0.60300
H1295       H  0.74269015  0.53209928  0.42708511     0.43700
H1296       H  0.66487617  0.65788863  0.45859689     0.43700
C1297       C  0.89672313  0.76243246  0.40729700    -0.05400
C1298       C  0.93679176  0.77758554  0.42535994    -0.32800
C1299       C  0.95804533  0.82050584  0.43875573     0.36400
C1300       C  0.94007621  0.84980637  0.43385396    -0.05800
C1301       C  0.90196985  0.83609420  0.41441190    -0.32700
C1302       C  0.88003454  0.79287712  0.40153729     0.36300
H1303       H  0.95140189  0.75634909  0.43074737     0.16700
O1304       O  0.99503899  0.83244836  0.45781488    -0.60200
H1305       H  0.88785896  0.85834040  0.41003134     0.16700
O1306       O  0.84157973  0.78034432  0.38376424    -0.60300
H1307       H  0.81586987  0.77324817  0.39852321     0.43700
H1308       H  0.48656182  0.82446879  0.47592109     0.43700
C1309       C  0.91532971  0.55913539  0.42741191    -0.05400
C1310       C  0.93652913  0.58607091  0.40142645    -0.32800
C1311       C  0.91613262  0.60847244  0.38673701     0.36400
C1312       C  0.87443427  0.60440006  0.39829879    -0.05800
C1313       C  0.85252684  0.57618125  0.42354005    -0.32700
C1314       C  0.87224977  0.55299891  0.43782527     0.36300
H1315       H  0.96959959  0.59090252  0.39316056     0.16700
O1316       O  0.93831768  0.63628480  0.36214265    -0.60200
H1317       H  0.82243866  0.57541864  0.43400303     0.16700
O1318       O  0.85180114  0.52851087  0.46400876    -0.60300
H1319       H  0.82716330  0.98874193  0.44526609     0.43700
H1320       H  0.96235775  0.66513670  0.37122163     0.43700
C1321       C  0.83258459  0.91528367  0.55654871    -0.05400
C1322       C  0.82691756  0.91920794  0.58840026    -0.32800
C1323       C  0.78264174  0.89767207  0.60228404     0.36400
C1324       C  0.74301445  0.87146680  0.58437239    -0.05800
C1325       C  0.74848258  0.86866521  0.55254610    -0.32700
C1326       C  0.79226728  0.89035545  0.53858871     0.36300
H1327       H  0.85689647  0.93852162  0.60273355     0.16700
O1328       O  0.77875461  0.90126927  0.63349424    -0.60200
H1329       H  0.71842682  0.84908899  0.53828790     0.16700
O1330       O  0.79494470  0.88580555  0.50733852    -0.60300
H1331       H  0.79251444  0.41657812  0.49921191     0.43700
H1332       H  0.78444184  0.87768952  0.64255217     0.43700
C1333       C  0.55112655  0.64134623  0.56318823    -0.05400
C1334       C  0.55878853  0.64316721  0.59497909    -0.32800
C1335       C  0.57990592  0.68462524  0.61084708     0.36400
C1336       C  0.59348903  0.72585213  0.59483036    -0.05800
C1337       C  0.58268286  0.72296946  0.56333748    -0.32700
C1338       C  0.56228915  0.68187241  0.54758595     0.36300
H1339       H  0.54993224  0.61240981  0.60756327     0.16700
O1340       O  0.58708757  0.68342343  0.64168061    -0.60200
H1341       H  0.59189415  0.75348528  0.55032446     0.16700
O1342       O  0.04433173  0.67931637  0.51924915    -0.60300
H1343       H  0.07288736  0.69127951  0.50641527     0.43700
H1344       H  0.61534834  0.68050733  0.64316377     0.43700
C1345       C  0.57240677  0.93007214  0.57410577    -0.05400
C1346       C  0.61795908  0.94001670  0.56706901    -0.32800
C1347       C  0.63754565  0.91622631  0.58103164     0.36400
C1348       C  0.61130315  0.88126639  0.60210576    -0.05800
C1349       C  0.56677828  0.87315129  0.61054946    -0.32700
C1350       C  0.54754997  0.89768174  0.59706721     0.36300
H1351       H  0.63777534  0.96503234  0.54961163     0.16700
O1352       O  0.68103998  0.92515592  0.57214152    -0.60200
H1353       H  0.54594866  0.84609408  0.62653722     0.16700
O1354       O  0.50284928  0.88658287  0.60428195    -0.60300
H1355       H  0.50520356  0.90420911  0.62312603     0.43700
H1356       H  0.67624791  0.90552757  0.55398581     0.43700
C1357       C  0.97599348  0.89281808  0.93192431    -0.05400
C1358       C  0.00216116  0.87407453  0.91930922    -0.32800
C1359       C  0.98066029  0.83104383  0.90606503     0.36400
C1360       C  0.93195220  0.80523788  0.90548152    -0.05800
C1361       C  0.90584208  0.82172844  0.92078294    -0.32700
C1362       C  0.92734573  0.86484812  0.93406804     0.36300
H1363       H  0.53975246  0.89191220  0.91854940     0.16700
O1364       O  0.00782700  0.81609190  0.89189067    -0.60200
H1365       H  0.86838424  0.80182612  0.92155392     0.16700
O1366       O  0.90042318  0.87987247  0.94858167    -0.60300
H1367       H  0.88224319  0.88383167  0.93208656     0.43700
H1368       H  0.51529932  0.79994399  0.90836143     0.43700
C1369       C  0.70237601  0.59531283  0.90354704    -0.05400
C1370       C  0.69456956  0.56298602  0.92627573    -0.32800
C1371       C  0.65237071  0.54114290  0.94248992     0.36400
C1372       C  0.61628671  0.55045011  0.93570404    -0.05800
C1373       C  0.62491822  0.58451786  0.91422410    -0.32700
C1374       C  0.66750202  0.60697465  0.89827846     0.36300
H1375       H  0.72094570  0.55386486  0.93104837     0.16700
O1376       O  0.64547495  0.50827447  0.96348539    -0.60200
H1377       H  0.59897718  0.09328573  0.91040609     0.16700
O1378       O  0.67341335  0.63812626  0.87613892    -0.60300
H1379       H  0.66367161  0.12543266  0.85959158     0.43700
H1380       H  0.64982014  0.52301813  0.98392019     0.43700
C1381       C  0.96997442  0.53685230  0.92317169    -0.05400
C1382       C  0.99736471  0.58259584  0.91519579    -0.32800
C1383       C  0.97773802  0.60657502  0.90142909     0.36400
C1384       C  0.92956760  0.58482446  0.89551975    -0.05800
C1385       C  0.90195742  0.53989988  0.90543477    -0.32700
C1386       C  0.92155997  0.51606903  0.91916347     0.36300
H1387       H  0.53396372  0.60026659  0.91988538     0.16700
O1388       O  0.00636303  0.65077387  0.89301242    -0.60200
H1389       H  0.86477955  0.52270155  0.90233160     0.16700
O1390       O  0.89275093  0.97342239  0.93008931    -0.60300
H1391       H  0.87868888  0.95488532  0.91140210     0.43700
H1392       H  0.50894663  0.66912549  0.91360141     0.43700
C1393       C  0.78700236  0.75036663  0.76915119    -0.05400
C1394       C  0.77829801  0.74369299  0.73743787    -0.32800
C1395       C  0.75807723  0.76550290  0.72144927     0.36400
C1396       C  0.74734880  0.79623937  0.73702652    -0.05800
C1397       C  0.75696906  0.80301062  0.76872001    -0.32700
C1398       C  0.77608019  0.78063961  0.78466460     0.36300
H1399       H  0.78576467  0.72019728  0.72502874     0.16700
O1400       O  0.74762311  0.75451208  0.69114214    -0.60200
H1401       H  0.74828227  0.82523113  0.78170196     0.16700
O1402       O  0.78423611  0.78921239  0.81554953    -0.60300
H1403       H  0.75392497  0.76993598  0.82582504     0.43700
H1404       H  0.71601129  0.72781675  0.69126595     0.43700
C1405       C  0.01048157  0.75399545  0.77025861    -0.05400
C1406       C  0.01546393  0.75347155  0.73800339    -0.32800
C1407       C  0.55999298  0.77723143  0.72403402     0.36400
C1408       C  0.59979646  0.80121056  0.74221831    -0.05800
C1409       C  0.59452358  0.80344394  0.77403368    -0.32700
C1410       C  0.55082501  0.78127752  0.78804269     0.36300
H1411       H  0.98546448  0.73354079  0.72381600     0.16700
O1412       O  0.56407641  0.77362499  0.69284984    -0.60200
H1413       H  0.62482864  0.82153860  0.78833891     0.16700
O1414       O  0.54825158  0.78524138  0.81935246    -0.60300
H1415       H  0.54335790  0.81158166  0.82243109     0.43700
H1416       H  0.56256503  0.79968784  0.68388007     0.43700
C1417       C  0.77495000  0.52262721  0.76250061    -0.05400
C1418       C  0.73250880  0.98690154  0.77321964    -0.32800
C1419       C  0.71175044  0.94476126  0.75840125     0.36400
C1420       C  0.73401272  0.93720324  0.73320159    -0.05800
C1421       C  0.77578157  0.97331018  0.72203819    -0.32700
C1422       C  0.79620535  0.01592558  0.73651610     0.36300
H1423       H  0.71538492  0.49146374  0.79299425     0.16700
O1424       O  0.67181250  0.91000561  0.77052301    -0.60200
H1425       H  0.79370529  0.96777746  0.70294407     0.16700
O1426       O  0.83740112  0.54973034  0.72510540    -0.60300
H1427       H  0.86171235  0.04593515  0.73696957     0.43700
H1428       H  0.64641675  0.90996169  0.75861236     0.43700
loop_ 
_geom_bond_atom_site_label_1 
_geom_bond_atom_site_label_2 
_geom_bond_distance 
_geom_bond_site_symmetry_2 
_ccdc_geom_bond_type 
O1           C17   1.271       .  A
O1           Zn7   1.995       .  S
C2           O18   1.273       .  A
C2           O15   1.279       .  A
C2          C313   1.494       .  S
O3           C16   1.280       .  A
O3          Cd10   2.123       .  S
O4           C22   1.278       .  A
O4          Cd13   2.073       .  S
O5           C19   1.274       .  A
O5           Cd9   2.075       .  S
O6           C17   1.273       .  A
O6           Cd9   2.057       .  S
Zn7          O18   2.017       .  S
Zn7          O20   1.995       .  S
Zn7          O12   1.939       .  S
O8           C19   1.279       .  A
O8          Cd13   2.105       .  S
Cd9          O11   2.049       .  S
Cd9          O12   1.996       .  S
Cd10         O14   2.107       .  S
Cd10         O23   2.106       .  S
Cd10         O12   2.033       .  S
O11          C21   1.273       .  A
O12         Cd13   1.997       .  S
Cd13         O15   2.091       .  S
O14          C21   1.280       .  A
C16          O20   1.271       .  A
C16         C334   1.499       .  S
C17         C289   1.477       .  S
C19         C298   1.493       .  S
C21         C322   1.491       .  S
C22          O23   1.282       .  A
C22         C346   1.487       .  S
C24          C25   1.536       .  S
C24          C30   1.538       .  S
C24          C28   1.539       .  S
C24         C325   1.540       .  S
C25          H32   1.087       .  S
C25          C26   1.361       .  D
C26          C27   1.540       .  S
C26         C337   1.485       .  S
C27          C31   1.549       .  S
C27          C29   1.540       .  S
C27          H33   1.111       .  S
C28          H34   1.080       .  S
C28          C29   1.370       .  D
C29          C88   1.477       .  S
C30          H35   1.087       .  S
C30          C31   1.365       .  D
C31         C349   1.485       .  S
C36          C42   1.535       .  S
C36          C40   1.528       .  S
C36         C751   1.533       .  S
C36         C286   1.528       .  S
C37         C750   1.533   1_455  S
C37          H44   1.081       .  S
C37         C395   1.363       .  D
C38          C39   1.557       .  S
C38         C394   1.363   1_545  D
C38         C301   1.494       .  S
C39          C41   1.550   1_545  S
C39         C757   1.548   1_455  S
C39          H45   1.110       .  S
C40          H46   1.087       .  S
C40        C1112   1.363       .  D
C41        C1111   1.363   1_455  D
C41         C123   1.481   1_466  S
C42          H47   1.085       .  S
C42         C400   1.366       .  D
C43         C753   1.547       .  S
C43         C399   1.365   1_545  D
C43         C310   1.493       .  S
O48          C64   1.275       .  A
O48        Zn768   2.015       .  S
C49          O65   1.275       .  A
C49          O62   1.273       .  A
C49         C217   1.493       .  S
O50          C63   1.281       .  A
O50        Cd771   2.112   1_455  S
O51          C69   1.273       .  A
O51         Cd60   2.040       .  S
O52          C66   1.268       .  A
O52        Cd413   2.044   1_545  S
O53          C64   1.270       .  A
O53         Cd56   2.027       .  S
Zn54         O67   2.016       .  S
Zn54        O762   2.011   1_455  S
Zn54        O422   2.035       .  S
Zn54        O773   1.945   1_455  S
O55          C66   1.273       .  A
O55        Cd774   2.073       .  S
Cd56         O58   2.044       .  S
Cd56        O409   2.048       .  S
Cd56         O59   1.984       .  S
Cd57         O61   2.119       .  S
Cd57        O764   2.114       .  S
Cd57       O1141   2.097       .  S
Cd57         O59   2.025       .  S
O58          C68   1.271       .  A
O59        Zn768   1.948       .  S
O59       Cd1131   1.984       .  S
Cd60         O62   2.060       .  S
Cd60        O769   2.075   1_455  S
Cd60       O1130   1.986   1_445  S
O61          C68   1.281       .  A
C63          O67   1.275       .  A
C63         C274   1.487       .  S
C64         C229   1.471       .  S
O65        Zn411   2.037   1_545  S
C66         C238   1.469       .  S
C68         C250   1.497       .  S
C69          O70   1.280       .  A
C69         C262   1.484       .  S
O70       Cd1128   2.095   1_445  S
C71          C72   1.531       .  S
C71          C77   1.534       .  S
C71          C75   1.528       .  S
C71         C226   1.524       .  S
C72          H79   1.081       .  S
C72          C73   1.360       .  D
C73          C74   1.544       .  S
C73         C241   1.470       .  S
C74          C78   1.548       .  S
C74          C76   1.543       .  S
C74          H80   1.109       .  S
C75          H81   1.087       .  S
C75          C76   1.362       .  D
C76         C135   1.473       .  S
C77          H82   1.086       .  S
C77          C78   1.369       .  D
C78         C214   1.498       .  S
C83          C84   1.539       .  S
C83          C89   1.535       .  S
C83          C87   1.536       .  S
C83         C265   1.538       .  S
C84          H91   1.087       .  S
C84          C85   1.364       .  D
C85          C86   1.542       .  S
C85         C253   1.490       .  S
C86          C90   1.549       .  S
C86          C88   1.541       .  S
C86          H92   1.110       .  S
C87          H93   1.077       .  S
C87          C88   1.365       .  D
C89          H94   1.087       .  S
C89          C90   1.366       .  D
C90         C277   1.489       .  S
O95         C111   1.271       .  A
O95        Zn101   2.004       .  S
C96         O112   1.274       .  A
C96         O109   1.277       .  A
C96         C205   1.481   1_455  S
O97         C110   1.281       .  A
O97        Cd104   2.118       .  S
O98         C116   1.278       .  A
O98        Cd107   2.075       .  S
O99         C113   1.272       .  A
O99        Cd103   2.064       .  S
O100        C111   1.273       .  A
O100       Cd103   2.067       .  S
Zn101       O112   2.021       .  S
Zn101       O114   2.008       .  S
Zn101       O106   1.944       .  S
O102        C113   1.277       .  A
O102       Cd107   2.089       .  S
Cd103       O105   2.056       .  S
Cd103       O106   2.001       .  S
Cd104       O108   2.106       .  S
Cd104       O117   2.115       .  S
Cd104       O106   2.029       .  S
O105        C115   1.274       .  A
O106       Cd107   1.999       .  S
Cd107       O109   2.088       .  S
O108        C115   1.279       .  A
C110        O114   1.273       .  A
C110        C154   1.488       .  S
C111        C181   1.461       .  S
C113        C190   1.492       .  S
C115        C145   1.486       .  S
C116        O117   1.282       .  A
C116        C169   1.500       .  S
C118        C124   1.533       .  S
C118        C122   1.544       .  S
C118        C476   1.538       .  S
C118        C142   1.541       .  S
C119        C475   1.537   1_545  S
C119        H126   1.087       .  S
C119        C834   1.365       .  D
C120        C121   1.547       .  S
C120        C833   1.365   1_455  D
C120        C157   1.484       .  S
C121        C123   1.540   1_455  S
C121        C482   1.543   1_545  S
C121        H127   1.111       .  S
C122        H128   1.083       .  S
C122       C1194   1.373       .  D
C123       C1193   1.373   1_545  D
C124        H129   1.087       .  S
C124        C839   1.361       .  D
C125        C478   1.542       .  S
C125        C838   1.361   1_455  D
C125        C166   1.485       .  S
C130        C131   1.530       .  S
C130        C136   1.531       .  S
C130        C134   1.537       .  S
C130        C178   1.528       .  S
C131        H138   1.086       .  S
C131        C132   1.367       .  D
C132        C133   1.550       .  S
C132        C193   1.492       .  S
C133        C137   1.546       .  S
C133        C135   1.541       .  S
C133        H139   1.110       .  S
C134        H140   1.082       .  S
C134        C135   1.368       .  D
C136        H141   1.087       .  S
C136        C137   1.358       .  D
C137        C202   1.480       .  S
C142        C143   1.412       .  A
C142        C147   1.422       .  A
C143        C144   1.397       .  A
C143        H148   1.082       .  S
C144        C145   1.407       .  A
C144        O149   1.373       .  S
C145        C146   1.402       .  A
C146        C147   1.408       .  A
C146        H150   1.083       .  S
C147        O151   1.369       .  S
O149        H153   0.992       .  S
O151        H152   0.992       .  S
C154        C155   1.404       .  A
C154        C159   1.415       .  A
C155        C156   1.404       .  A
C155        H160   1.083       .  S
C156        C157   1.411       .  A
C156        O161   1.371       .  S
C157        C158   1.400       .  A
C158        C159   1.405       .  A
C158        H876   1.084       .  S
C159        O163   1.372       .  S
O161        H165   0.993       .  S
H162        C872   1.084       .  S
O163        H878   0.992       .  S
H164        O877   0.992       .  S
C166        C167   1.405       .  A
C166        C171   1.403       .  A
C167        C168   1.411       .  A
C167        H172   1.084       .  S
C168        C169   1.416       .  A
C168        O173   1.371       .  S
C169        C170   1.410       .  A
C170        C171   1.400       .  A
C170        H174   1.083       .  S
C171        O175   1.372       .  S
O173        H177   0.993       .  S
O175        H176   0.992       .  S
C178        C179   1.414       .  A
C178        C183   1.417       .  A
C179        C180   1.403       .  A
C179        H184   1.077       .  S
C180        C181   1.402       .  A
C180        O185   1.372       .  S
C181        C182   1.394       .  A
C182        C183   1.393       .  A
C182        H186   1.084       .  S
C183        O187   1.373       .  S
O185        H189   0.993       .  S
O187        H188   0.992       .  S
C190        C195   1.410       .  A
C190        C548   1.410       .  A
C191        C192   1.404   1_565  A
C191        C547   1.409       .  A
C191        H196   1.083       .  S
C192        C193   1.407       .  A
C192        O197   1.369       .  S
C193        C194   1.407       .  A
C194        C552   1.400   1_545  A
C194        H198   1.084       .  S
C195        C551   1.400       .  A
C195        O199   1.372       .  S
O197        H201   0.992       .  S
O199        H200   0.992       .  S
C202        C203   1.404       .  A
C202        C207   1.406       .  A
C203        C918   1.403       .  A
C203        H208   1.084       .  S
C204        C205   1.410       .  A
C204        C917   1.403       .  A
C204        O209   1.371   1_655  S
C205        C920   1.404       .  A
C206        C207   1.401       .  A
C206        C919   1.404       .  A
C206        H210   1.084       .  S
C207        O211   1.370       .  S
O209        H213   0.992       .  S
O211        H212   0.993       .  S
C214        C215   1.406       .  A
C214        C219   1.412       .  A
C215        C216   1.396       .  A
C215        H220   1.083       .  S
C216        C217   1.412       .  A
C216        O221   1.372       .  S
C217        C218   1.408       .  A
C218        C219   1.410       .  A
C218        H222   1.083       .  S
C219        O223   1.372       .  S
O221        H225   0.993       .  S
O223        H224   0.992       .  S
C226        C227   1.411       .  A
C226        C231   1.415       .  A
C227        C228   1.395       .  A
C227        H232   1.075       .  S
C228        C229   1.405       .  A
C228        O233   1.372       .  S
C229        C230   1.402       .  A
C230        C231   1.393       .  A
C230        H234   1.084       .  S
C231        O235   1.373       .  S
O233        H951   0.994       .  S
O235        H236   0.992       .  S
H237        O947   0.993       .  S
C238        C239   1.402       .  A
C238        C243   1.409       .  A
C239        C240   1.400       .  A
C239        H244   1.084       .  S
C240        C241   1.408       .  A
C240        O245   1.372       .  S
C241        C242   1.398       .  A
C242        C243   1.396       .  A
C242        H246   1.080       .  S
C243        O247   1.372       .  S
O245        H249   0.992       .  S
O247        H605   0.992   1_545  S
H248        O604   0.992       .  S
C250        C251   1.409       .  A
C250        C255   1.419       .  A
C251        C252   1.408       .  A
C251        H256   1.083       .  S
C252        C253   1.409       .  A
C252        O257   1.371       .  S
C253        C254   1.401       .  A
C254        C255   1.398       .  A
C254        H258   1.084       .  S
C255        O259   1.372       .  S
O257        H261   0.991       .  S
O259        H617   0.992       .  S
H260        O616   0.992       .  S
C262        C263   1.402       .  A
C262        C267   1.410       .  A
C263        C264   1.404       .  A
C263        H268   1.084       .  S
C264        C265   1.423       .  A
C264        O269   1.367       .  S
C265        C266   1.408       .  A
C266        C267   1.393       .  A
C266        H270   1.084       .  S
C267        O985   1.373       .  S
O269        H273   0.992       .  S
O271        C981   1.373       .  S
O271        H272   0.993       .  S
C274        C275   1.407       .  A
C274        C279   1.409       .  A
C275        C276   1.403       .  A
C275        H280   1.084       .  S
C276        C277   1.408       .  A
C276        O281   1.371       .  S
C277        C278   1.407       .  A
C278        C279   1.406       .  A
C278        H282   1.084       .  S
C279        O283   1.371       .  S
O281        H285   0.992       .  S
O283        H284   0.992       .  S
C286        C287   1.410       .  A
C286        C291   1.416       .  A
C287        C288   1.395       .  A
C287       H1006   1.075       .  S
C288        C289   1.409       .  A
C288        O293   1.372       .  S
C289        C290   1.402       .  A
C290        C291   1.398       .  A
C290        H294   1.084       .  S
C291        O295   1.373       .  S
H292       C1001   1.076       .  S
O293       H1011   0.992       .  S
O295        H296   0.992       .  S
H297       O1007   0.992       .  S
C298        C299   1.404       .  A
C298        C303   1.415       .  A
C299        C300   1.403       .  A
C299        H304   1.083       .  S
C300        C301   1.414       .  A
C300        O305   1.372       .  S
C301        C302   1.402       .  A
C302        C303   1.408       .  A
C302        H663   1.080       .  S
C303        O307   1.372       .  S
O305        H309   0.993       .  S
H306        C659   1.080       .  S
O307        H665   0.992       .  S
H308        O664   0.992       .  S
C310        C311   1.402       .  A
C310        C315   1.413       .  A
C311        C312   1.405       .  A
C311       H1030   1.080       .  S
C312        C313   1.417       .  A
C312        O317   1.371       .  S
C313        C314   1.404       .  A
C314        C315   1.400       .  A
C314        H318   1.083       .  S
C315        O676   1.373   1_545  S
H316       C1025   1.081   1_455  S
O317       H1035   0.992       .  S
O319        C672   1.373       .  S
O319        H320   0.993       .  S
H321       O1031   0.992       .  S
C322        C323   1.405       .  A
C322        C327   1.411       .  A
C323        C324   1.408       .  A
C323        H328   1.083       .  S
C324        C325   1.423       .  A
C324        O329   1.368       .  S
C325        C326   1.408       .  A
C326        C327   1.394       .  A
C326        H330   1.084       .  S
C327        O331   1.372       .  S
O329        H333   0.992       .  S
O331        H332   0.992       .  S
C334        C335   1.410       .  A
C334       C1053   1.419       .  A
C335       C1050   1.410       .  A
C335        H340   1.083       .  S
C336        C337   1.409       .  A
C336       C1049   1.411       .  A
C336        O341   1.371       .  S
C337        C338   1.397       .  A
C338        C339   1.397       .  A
C338        H342   1.084       .  S
C339       C1048   1.419       .  A
C339        O343   1.372       .  S
O341        H345   0.991       .  S
O343        H344   0.992       .  S
C346        C704   1.407   1_545  A
C346        C708   1.411       .  A
C347        C348   1.401       .  A
C347        C703   1.407       .  A
C347        H709   1.084       .  S
C348        C349   1.405       .  A
C348        O353   1.370       .  S
C349        C350   1.406       .  A
C350        C351   1.407       .  A
C350        H354   1.084       .  S
C351        C703   1.411       .  A
C351        O712   1.371       .  S
H352        C704   1.084       .  S
O353        H357   0.992       .  S
O355        C708   1.372       .  S
O355        H713   0.992       .  S
H356        O712   0.992       .  S
O358        C374   1.270       .  A
O358       Zn364   1.989       .  S
C359        O375   1.273       .  A
C359        O372   1.279       .  A
C359        C670   1.495       .  S
O360        C373   1.281       .  A
O360       Cd367   2.126       .  S
O361        C379   1.279       .  A
O361       Cd370   2.074       .  S
O362        C376   1.273       .  A
O362       Cd366   2.074       .  S
O363        C374   1.273       .  A
O363       Cd366   2.055       .  S
Zn364       O375   2.017       .  S
Zn364       O377   1.995       .  S
Zn364       O369   1.939       .  S
O365        C376   1.279       .  A
O365       Cd370   2.105       .  S
Cd366       O368   2.046       .  S
Cd366       O369   1.996       .  S
Cd367       O371   2.109       .  S
Cd367       O380   2.109       .  S
Cd367       O369   2.033       .  S
O368        C378   1.272       .  A
O369       Cd370   1.996       .  S
Cd370       O372   2.092       .  S
O371        C378   1.280       .  A
C373        O377   1.271       .  A
C373        C691   1.500       .  S
C374        C646   1.475       .  S
C376        C655   1.492       .  S
C378        C679   1.493       .  S
C379        O380   1.282       .  A
C379        C703   1.488       .  S
C381        C382   1.537       .  S
C381        C387   1.536       .  S
C381        C385   1.539       .  S
C381        C682   1.540       .  S
C382        H389   1.087       .  S
C382        C383   1.361       .  D
C383        C384   1.539       .  S
C383        C694   1.483       .  S
C384        C388   1.549       .  S
C384        C386   1.539       .  S
C384        H390   1.111       .  S
C385        H391   1.078       .  S
C385        C386   1.370       .  D
C386        C445   1.474       .  S
C387        H392   1.087       .  S
C387        C388   1.365       .  D
C388        C706   1.484       .  S
C393       C1108   1.533       .  S
C393        C399   1.535       .  S
C393        C397   1.526       .  S
C393        C643   1.526       .  S
C394       C1107   1.533   1_455  S
C394        H401   1.081       .  S
C395        C396   1.557       .  S
C395        C658   1.493       .  S
C396       C1114   1.547   1_455  S
C396        C398   1.550       .  S
C396        H402   1.110       .  S
C397        H403   1.087       .  S
C397        C755   1.362       .  D
C398        C754   1.362   1_455  D
C398        C480   1.480   1_456  S
C399        H404   1.086       .  S
C400       C1110   1.547       .  S
C400        C667   1.494       .  S
O405        C421   1.275       .  A
O405      Zn1125   2.012       .  S
C406        O422   1.275       .  A
C406        O419   1.273       .  A
C406        C574   1.492       .  S
O407        C420   1.281       .  A
O407      Cd1128   2.114   1_455  S
O408        C426   1.273       .  A
O408       Cd417   2.042       .  S
O409        C423   1.269       .  A
O410        C421   1.270       .  A
O410       Cd413   2.027       .  S
Zn411      O1119   2.013   1_455  S
Zn411       O424   2.015       .  S
Zn411      O1130   1.947   1_455  S
O412        C423   1.274       .  A
O412      Cd1131   2.073       .  S
Cd413       O415   2.037       .  S
Cd413       O416   1.980       .  S
Cd414      O1121   2.112       .  S
Cd414       O418   2.124       .  S
Cd414       O784   2.096   1_565  S
Cd414       O416   2.024       .  S
O415        C425   1.269       .  A
O416      Zn1125   1.945       .  S
O416       Cd774   1.987   1_565  S
Cd417      O1126   2.074   1_455  S
Cd417       O419   2.062       .  S
Cd417       O773   1.987   1_455  S
O418        C425   1.281       .  A
C420        O424   1.275       .  A
C420        C631   1.486       .  S
C421        C586   1.473       .  S
C423        C595   1.477       .  S
C425        C607   1.498       .  S
C426        O427   1.280       .  A
C426        C619   1.482       .  S
O427       Cd771   2.096   1_455  S
C428        C429   1.529       .  S
C428        C434   1.532       .  S
C428        C432   1.528       .  S
C428        C583   1.524       .  S
C429        H436   1.080       .  S
C429        C430   1.362       .  D
C430        C431   1.549       .  S
C430        C598   1.477       .  S
C431        C435   1.553       .  S
C431        C433   1.541       .  S
C431        H437   1.109       .  S
C432        H438   1.087       .  S
C432        C433   1.362       .  D
C433        C492   1.473       .  S
C434        H439   1.086       .  S
C434        C435   1.370       .  D
C435        C571   1.503       .  S
C440        C441   1.536       .  S
C440        C446   1.537       .  S
C440        C444   1.535       .  S
C440        C622   1.537       .  S
C441        H448   1.087       .  S
C441        C442   1.364       .  D
C442        C443   1.542       .  S
C442        C610   1.490       .  S
C443        C447   1.551       .  S
C443        C445   1.539       .  S
C443        H449   1.110       .  S
C444        H450   1.079       .  S
C444        C445   1.365       .  D
C446        H451   1.086       .  S
C446        C447   1.367       .  D
C447        C634   1.490       .  S
O452        C468   1.271       .  A
O452       Zn458   2.005       .  S
C453        O469   1.275       .  A
C453        O466   1.277       .  A
C453        C562   1.482   1_455  S
O454        C467   1.280       .  A
O454       Cd461   2.115       .  S
O455        C473   1.278       .  A
O455       Cd464   2.074       .  S
O456        C470   1.272       .  A
O456       Cd460   2.062       .  S
O457        C468   1.272       .  A
O457       Cd460   2.062       .  S
Zn458       O469   2.026       .  S
Zn458       O471   2.010       .  S
Zn458       O463   1.945       .  S
O459        C470   1.276       .  A
O459       Cd464   2.086       .  S
Cd460       O462   2.054       .  S
Cd460       O463   1.999       .  S
Cd461       O465   2.105       .  S
Cd461       O474   2.110       .  S
Cd461       O463   2.028       .  S
O462        C472   1.274       .  A
O463       Cd464   1.998       .  S
Cd464       O466   2.084       .  S
O465        C472   1.279       .  A
C467        O471   1.273       .  A
C467        C511   1.487       .  S
C468        C538   1.460       .  S
C470        C547   1.490       .  S
C472        C502   1.489       .  S
C473        O474   1.281       .  A
C473        C526   1.498       .  S
C475        C481   1.535       .  S
C475        C479   1.546       .  S
C475        C499   1.543       .  S
C476        H483   1.086       .  S
C476       C1191   1.365       .  D
C477        C478   1.546       .  S
C477       C1190   1.365   1_455  D
C477        C514   1.484       .  S
C478        C480   1.538   1_455  S
C478        H484   1.111       .  S
C479        H485   1.081       .  S
C479        C837   1.374       .  D
C480        C836   1.373       .  D
C481        H486   1.087       .  S
C481       C1196   1.360       .  D
C482       C1195   1.360   1_455  D
C482        C523   1.485       .  S
C487        C488   1.530       .  S
C487        C493   1.530       .  S
C487        C491   1.536       .  S
C487        C535   1.526       .  S
C488        H495   1.086       .  S
C488        C489   1.367       .  D
C489        C490   1.550       .  S
C489        C550   1.492       .  S
C490        C494   1.545       .  S
C490        C492   1.542       .  S
C490        H496   1.110       .  S
C491        H497   1.082       .  S
C491        C492   1.367       .  D
C493        H498   1.087       .  S
C493        C494   1.358       .  D
C494        C559   1.478       .  S
C499        C500   1.411       .  A
C499        C504   1.422       .  A
C500        C501   1.396       .  A
C500        H505   1.083   1_565  S
C501        C502   1.409       .  A
C501        O506   1.373       .  S
C502        C503   1.404       .  A
C503        C504   1.409       .  A
C503        H507   1.083       .  S
C504        O508   1.368       .  S
O506        H510   0.992       .  S
O508        H509   0.992       .  S
C511        C512   1.404       .  A
C511        C516   1.414       .  A
C512        C513   1.404       .  A
C512        H517   1.083       .  S
C513        C514   1.411       .  A
C513        O518   1.371       .  S
C514        C515   1.400       .  A
C515        C516   1.404       .  A
C515       H1233   1.084       .  S
C516        O520   1.372       .  S
O518        H522   0.993       .  S
H519       C1229   1.084       .  S
O520       H1235   0.992       .  S
H521       O1234   0.992       .  S
C523        C524   1.404       .  A
C523        C528   1.404       .  A
C524        C525   1.410       .  A
C524        H529   1.084       .  S
C525        C526   1.416       .  A
C525        O530   1.371       .  S
C526        C527   1.410       .  A
C527        C528   1.400       .  A
C527        H531   1.083       .  S
C528        O532   1.372       .  S
O530        H534   0.993       .  S
O532        H533   0.992       .  S
C535        C536   1.414       .  A
C535        C540   1.417       .  A
C536        C537   1.401       .  A
C536        H541   1.077       .  S
C537        C538   1.402       .  A
C537        O542   1.372       .  S
C538        C539   1.394       .  A
C539        C540   1.393       .  A
C539        H543   1.084       .  S
C540        O544   1.373       .  S
O542        H546   0.993       .  S
O544        H545   0.992       .  S
C547        C552   1.410       .  A
C548        C549   1.404       .  A
C548        H553   1.083       .  S
C549        C550   1.407       .  A
C549        O554   1.369       .  S
C550        C551   1.407       .  A
C551        H555   1.084       .  S
C552        O556   1.372       .  S
O554        H558   0.992       .  S
O556        H557   0.992       .  S
C559        C560   1.404       .  A
C559        C564   1.406       .  A
C560       C1275   1.403       .  A
C560        H565   1.084       .  S
C561       C1274   1.403       .  A
C561        C562   1.410       .  A
C561        O566   1.372   1_655  S
C562       C1277   1.404       .  A
C563       C1276   1.404       .  A
C563        C564   1.401       .  A
C563        H567   1.084       .  S
C564        O568   1.370       .  S
O566        H570   0.992       .  S
O568        H569   0.993       .  S
C571        C572   1.409       .  A
C571        C576   1.412       .  A
C572        C573   1.396       .  A
C572        H577   1.083       .  S
C573        C574   1.411       .  A
C573        O578   1.372       .  S
C574        C575   1.407       .  A
C575        C576   1.410       .  A
C575        H579   1.083       .  S
C576        O580   1.371       .  S
O578        H582   0.993       .  S
O580        H581   0.992       .  S
C583        C584   1.410       .  A
C583        C588   1.415       .  A
C584        C585   1.395       .  A
C584        H589   1.075       .  S
C585        C586   1.406       .  A
C585        O590   1.372       .  S
C586        C587   1.402       .  A
C587        C588   1.393       .  A
C587        H591   1.084       .  S
C588        O592   1.374       .  S
O590       H1308   0.993       .  S
O592        H593   0.992       .  S
H594       O1304   0.994       .  S
C595        C596   1.403       .  A
C595        C600   1.411       .  A
C596        C597   1.400       .  A
C596        H601   1.084       .  S
C597        C598   1.410       .  A
C597        O602   1.374       .  S
C598        C599   1.397       .  A
C599        C600   1.398       .  A
C599        H603   1.076       .  S
C600        O604   1.372       .  S
O602        H606   0.992       .  S
C607        C608   1.408       .  A
C607        C612   1.420       .  A
C608        C609   1.409       .  A
C608        H613   1.083       .  S
C609        C610   1.409       .  A
C609        O614   1.371       .  S
C610        C611   1.400       .  A
C611        C612   1.397       .  A
C611        H615   1.084       .  S
C612        O616   1.372       .  S
O614        H618   0.991       .  S
C619        C620   1.401       .  A
C619        C624   1.409       .  A
C620        C621   1.404       .  A
C620        H625   1.084       .  S
C621        C622   1.424       .  A
C621        O626   1.367       .  S
C622        C623   1.408       .  A
C623        C624   1.394       .  A
C623        H627   1.084       .  S
C624       O1342   1.373       .  S
O626        H630   0.992       .  S
O628       C1338   1.372       .  S
O628        H629   0.993       .  S
C631        C632   1.407       .  A
C631        C636   1.408       .  A
C632        C633   1.403       .  A
C632        H637   1.084       .  S
C633        C634   1.407       .  A
C633        O638   1.372       .  S
C634        C635   1.408       .  A
C635        C636   1.406       .  A
C635        H639   1.084       .  S
C636        O640   1.371       .  S
O638        H642   0.992       .  S
O640        H641   0.992       .  S
C643        C644   1.409       .  A
C643        C648   1.416       .  A
C644        C645   1.394       .  A
C644       H1363   1.076       .  S
C645        C646   1.409       .  A
C645        O650   1.372       .  S
C646        C647   1.401       .  A
C647        C648   1.397       .  A
C647        H651   1.084       .  S
C648        O652   1.374       .  S
H649       C1358   1.076       .  S
O650       H1368   0.992       .  S
O652        H653   0.992       .  S
H654       O1364   0.992       .  S
C655        C656   1.404       .  A
C655        C660   1.415       .  A
C656        C657   1.403       .  A
C656        H661   1.083       .  S
C657        C658   1.413       .  A
C657        O662   1.372       .  S
C658        C659   1.402       .  A
C659        C660   1.407       .  A
C660        O664   1.372       .  S
O662        H666   0.993       .  S
C667        C668   1.402       .  A
C667        C672   1.413       .  A
C668        C669   1.406       .  A
C668       H1387   1.081       .  S
C669        C670   1.418       .  A
C669        O674   1.371       .  S
C670        C671   1.404       .  A
C671        C672   1.400       .  A
C671        H675   1.083       .  S
H673       C1382   1.080   1_455  S
O674       H1392   0.993       .  S
O676        H677   0.993       .  S
H678       O1388   0.992       .  S
C679        C680   1.405       .  A
C679        C684   1.412       .  A
C680        C681   1.408       .  A
C680        H685   1.083       .  S
C681        C682   1.423       .  A
C681        O686   1.367       .  S
C682        C683   1.408       .  A
C683        C684   1.394       .  A
C683        H687   1.084       .  S
C684        O688   1.372       .  S
O686        H690   0.992       .  S
O688        H689   0.992       .  S
C691        C692   1.410       .  A
C691       C1410   1.419       .  A
C692       C1407   1.411       .  A
C692        H697   1.083       .  S
C693       C1406   1.410       .  A
C693        C694   1.409       .  A
C693        O698   1.371       .  S
C694        C695   1.397       .  A
C695        C696   1.396       .  A
C695        H699   1.084       .  S
C696       C1405   1.419       .  A
C696        O700   1.372       .  S
O698        H702   0.992       .  S
O700        H701   0.992       .  S
C704        C705   1.401       .  A
C705        C706   1.405       .  A
C705        O710   1.370       .  S
C706        C707   1.406       .  A
C707        C708   1.406   1_565  A
C707        H711   1.084       .  S
O710        H714   0.992       .  S
O715        C731   1.270       .  A
O715       Zn721   1.990       .  S
C716        O732   1.273       .  A
C716        O729   1.279       .  A
C716       C1027   1.495       .  S
O717        C730   1.281       .  A
O717       Cd724   2.126       .  S
O718        C736   1.279       .  A
O718       Cd727   2.074       .  S
O719        C733   1.273       .  A
O719       Cd723   2.075       .  S
O720        C731   1.273       .  A
O720       Cd723   2.055       .  S
Zn721       O732   2.016       .  S
Zn721       O734   1.994       .  S
Zn721       O726   1.940       .  S
O722        C733   1.279       .  A
O722       Cd727   2.104       .  S
Cd723       O725   2.049       .  S
Cd723       O726   1.996       .  S
Cd724       O728   2.111       .  S
Cd724       O737   2.109       .  S
Cd724       O726   2.033       .  S
O725        C735   1.273       .  A
O726       Cd727   1.997       .  S
Cd727       O729   2.092       .  S
O728        C735   1.280       .  A
C730        O734   1.271       .  A
C730       C1048   1.499   1_655  S
C731       C1003   1.475       .  S
C733       C1012   1.492       .  S
C735       C1036   1.493       .  S
C736        O737   1.282       .  A
C736       C1060   1.488       .  S
C738        C739   1.536       .  S
C738        C744   1.537       .  S
C738        C742   1.539       .  S
C738       C1039   1.541       .  S
C739        H746   1.087       .  S
C739        C740   1.361       .  D
C740        C741   1.540       .  S
C740       C1051   1.484       .  S
C741        C745   1.548       .  S
C741        C743   1.539       .  S
C741        H747   1.111       .  S
C742        H748   1.079       .  S
C742        C743   1.370       .  D
C743        C802   1.475       .  S
C744        H749   1.087       .  S
C744        C745   1.365       .  D
C745       C1063   1.484       .  S
C750        C756   1.535       .  S
C750        C754   1.527       .  S
C750       C1000   1.526       .  S
C751        H758   1.080       .  S
C751       C1109   1.362       .  D
C752        C753   1.557       .  S
C752       C1108   1.364   1_545  D
C752       C1015   1.494       .  S
C753        C755   1.550   1_545  S
C753        H759   1.110       .  S
C754        H760   1.087       .  S
C755        C837   1.480   1_556  S
C756        H761   1.086       .  S
C756       C1114   1.365       .  D
C757       C1113   1.366   1_545  D
C757       C1024   1.494       .  S
O762        C778   1.274       .  A
C763        O779   1.275       .  A
C763        O776   1.273       .  A
C763        C931   1.492       .  S
O764        C777   1.281       .  A
O765        C783   1.273       .  A
O765       Cd774   2.040       .  S
O766        C780   1.269   1_565  A
O766      Cd1127   2.048       .  S
O767        C778   1.271       .  A
O767       Cd770   2.029       .  S
Zn768      O1136   2.037       .  S
Zn768       O781   2.015       .  S
O769        C780   1.274       .  A
Cd770      O1123   2.045       .  S
Cd770       O772   2.039       .  S
Cd770       O773   1.982       .  S
Cd771       O775   2.124       .  S
Cd771       O773   2.024       .  S
O772        C782   1.270       .  A
Cd774       O776   2.060       .  S
O775        C782   1.281       .  A
C777        O781   1.275       .  A
C777        C988   1.486       .  S
C778        C943   1.472       .  S
O779      Zn1125   2.036   1_545  S
C780        C952   1.474       .  S
C782        C964   1.498       .  S
C783        O784   1.280       .  A
C783        C976   1.482       .  S
C785        C786   1.531       .  S
C785        C791   1.533       .  S
C785        C789   1.527       .  S
C785        C940   1.524       .  S
C786        H793   1.080       .  S
C786        C787   1.361       .  D
C787        C788   1.547       .  S
C787        C955   1.474       .  S
C788        C792   1.550       .  S
C788        C790   1.542       .  S
C788        H794   1.109       .  S
C789        H795   1.087       .  S
C789        C790   1.362       .  D
C790        C849   1.473       .  S
C791        H796   1.086       .  S
C791        C792   1.369       .  D
C792        C928   1.501       .  S
C797        C798   1.537       .  S
C797        C803   1.537       .  S
C797        C801   1.535       .  S
C797        C979   1.537       .  S
C798        H805   1.087       .  S
C798        C799   1.364       .  D
C799        C800   1.542       .  S
C799        C967   1.490       .  S
C800        C804   1.551       .  S
C800        C802   1.539       .  S
C800        H806   1.110       .  S
C801        H807   1.078       .  S
C801        C802   1.364       .  D
C803        H808   1.086       .  S
C803        C804   1.367       .  D
C804        C991   1.490       .  S
O809        C825   1.271       .  A
O809       Zn815   2.005       .  S
C810        O826   1.275       .  A
C810        O823   1.277       .  A
C810        C919   1.482       .  S
O811        C824   1.281       .  A
O811       Cd818   2.116       .  S
O812        C830   1.278       .  A
O812       Cd821   2.072       .  S
O813        C827   1.272       .  A
O813       Cd817   2.064       .  S
O814        C825   1.272       .  A
O814       Cd817   2.064       .  S
Zn815       O826   2.026       .  S
Zn815       O828   2.011       .  S
Zn815       O820   1.944       .  S
O816        C827   1.276       .  A
O816       Cd821   2.086       .  S
Cd817       O819   2.056       .  S
Cd817       O820   2.000       .  S
Cd818       O822   2.105       .  S
Cd818       O831   2.111       .  S
Cd818       O820   2.029       .  S
O819        C829   1.274       .  A
O820       Cd821   1.998       .  S
Cd821       O823   2.083       .  S
O822        C829   1.279       .  A
C824        O828   1.273       .  A
C824        C868   1.488       .  S
C825        C895   1.461       .  S
C827        C904   1.491       .  S
C829        C859   1.487       .  S
C830        O831   1.281       .  A
C830        C883   1.498       .  S
C832       C1190   1.538       .  S
C832        C838   1.535       .  S
C832        C836   1.545       .  S
C832        C856   1.542       .  S
C833       C1189   1.537   1_545  S
C833        H840   1.086       .  S
C834        C835   1.546       .  S
C834        C871   1.484       .  S
C835       C1196   1.542   1_545  S
C835        C837   1.538   1_545  S
C835        H841   1.111       .  S
C836        H842   1.082       .  S
C838        H843   1.087       .  S
C839       C1192   1.542       .  S
C839        C880   1.485       .  S
C844        C845   1.530       .  S
C844        C850   1.530       .  S
C844        C848   1.537       .  S
C844        C892   1.527       .  S
C845        H852   1.086       .  S
C845        C846   1.367       .  D
C846        C847   1.550       .  S
C846        C907   1.491       .  S
C847        C851   1.545       .  S
C847        C849   1.542       .  S
C847        H853   1.110       .  S
C848        H854   1.082       .  S
C848        C849   1.368       .  D
C850        H855   1.087       .  S
C850        C851   1.358       .  D
C851        C916   1.479       .  S
C856        C857   1.412       .  A
C856        C861   1.422       .  A
C857        C858   1.397       .  A
C857        H862   1.083       .  S
C858        C859   1.408       .  A
C858        O863   1.373       .  S
C859        C860   1.403       .  A
C860        C861   1.408       .  A
C860        H864   1.084       .  S
C861        O865   1.368       .  S
O863        H867   0.992       .  S
O865        H866   0.992       .  S
C868        C869   1.404       .  A
C868        C873   1.415       .  A
C869        C870   1.404       .  A
C869        H874   1.083       .  S
C870        C871   1.411       .  A
C870        O875   1.371       .  S
C871        C872   1.400       .  A
C872        C873   1.404       .  A
C873        O877   1.372       .  S
O875        H879   0.993       .  S
C880        C881   1.404       .  A
C880        C885   1.404       .  A
C881        C882   1.410       .  A
C881        H886   1.084       .  S
C882        C883   1.416       .  A
C882        O887   1.371       .  S
C883        C884   1.410       .  A
C884        C885   1.399       .  A
C884        H888   1.083       .  S
C885        O889   1.372       .  S
O887        H891   0.993       .  S
O889        H890   0.992       .  S
C892        C893   1.413       .  A
C892        C897   1.417       .  A
C893        C894   1.402       .  A
C893        H898   1.077       .  S
C894        C895   1.402       .  A
C894        O899   1.372       .  S
C895        C896   1.394       .  A
C896        C897   1.393       .  A
C896        H900   1.084       .  S
C897        O901   1.373       .  S
O899        H903   0.993       .  S
O901        H902   0.992       .  S
C904       C1262   1.410       .  A
C904        C909   1.410       .  A
C905       C1261   1.410       .  A
C905        C906   1.404   1_565  A
C905        H910   1.083       .  S
C906        C907   1.407       .  A
C906        O911   1.369       .  S
C907        C908   1.407       .  A
C908       C1266   1.400   1_545  A
C908        H912   1.084       .  S
C909       C1265   1.400       .  A
C909        O913   1.372       .  S
O911        H915   0.992       .  S
O913        H914   0.992       .  S
C916        C917   1.404       .  A
C916        C921   1.406       .  A
C917        H922   1.084       .  S
C918        C919   1.410       .  A
C918        O923   1.372       .  S
C920        C921   1.401       .  A
C920        H924   1.084       .  S
C921        O925   1.370       .  S
O923        H927   0.992       .  S
O925        H926   0.993       .  S
C928        C929   1.408       .  A
C928        C933   1.412       .  A
C929        C930   1.396       .  A
C929        H934   1.083       .  S
C930        C931   1.411       .  A
C930        O935   1.372       .  S
C931        C932   1.408       .  A
C932        C933   1.410       .  A
C932        H936   1.083       .  S
C933        O937   1.372       .  S
O935        H939   0.993       .  S
O937        H938   0.992       .  S
C940        C941   1.410       .  A
C940        C945   1.415       .  A
C941        C942   1.394       .  A
C941        H946   1.075       .  S
C942        C943   1.406       .  A
C942        O947   1.372       .  S
C943        C944   1.402       .  A
C944        C945   1.393       .  A
C944        H948   1.084       .  S
C945        O949   1.373       .  S
O949        H950   0.992       .  S
C952        C953   1.402       .  A
C952        C957   1.410       .  A
C953        C954   1.401       .  A
C953        H958   1.084       .  S
C954        C955   1.409       .  A
C954        O959   1.373       .  S
C955        C956   1.398       .  A
C956        C957   1.397       .  A
C956        H960   1.078       .  S
C957        O961   1.372       .  S
O959        H963   0.992       .  S
O961       H1319   0.992   1_545  S
H962       O1318   0.992       .  S
C964        C965   1.408       .  A
C964        C969   1.420       .  A
C965        C966   1.409       .  A
C965        H970   1.083       .  S
C966        C967   1.409       .  A
C966        O971   1.371       .  S
C967        C968   1.400       .  A
C968        C969   1.398       .  A
C968        H972   1.084       .  S
C969        O973   1.372       .  S
O971        H975   0.991       .  S
O973       H1331   0.992       .  S
H974       O1330   0.992       .  S
C976        C977   1.400       .  A
C976        C981   1.409       .  A
C977        C978   1.403       .  A
C977        H982   1.084       .  S
C978        C979   1.424       .  A
C978        O983   1.367       .  S
C979        C980   1.408       .  A
C980        C981   1.394       .  A
C980        H984   1.084       .  S
O983        H987   0.992       .  S
O985        H986   0.993       .  S
C988        C989   1.407       .  A
C988        C993   1.408       .  A
C989        C990   1.403       .  A
C989        H994   1.084       .  S
C990        C991   1.407       .  A
C990        O995   1.371       .  S
C991        C992   1.408       .  A
C992        C993   1.406       .  A
C992        H996   1.084       .  S
C993        O997   1.371       .  S
O995        H999   0.992       .  S
O997        H998   0.992       .  S
C1000      C1001   1.409   1_655  A
C1000      C1005   1.416       .  A
C1001      C1002   1.394   1_455  A
C1002      C1003   1.409       .  A
C1002      O1007   1.372   1_655  S
C1003      C1004   1.401       .  A
C1004      C1005   1.397       .  A
C1004      H1008   1.084       .  S
C1005      O1009   1.374       .  S
O1009      H1010   0.992       .  S
C1012      C1013   1.404       .  A
C1012      C1017   1.415       .  A
C1013      C1014   1.403       .  A
C1013      H1018   1.083       .  S
C1014      C1015   1.413       .  A
C1014      O1019   1.372       .  S
C1015      C1016   1.402       .  A
C1016      C1017   1.407       .  A
C1016      H1377   1.080       .  S
C1017      O1021   1.372       .  S
O1019      H1023   0.993       .  S
H1020      C1373   1.081       .  S
O1021      H1379   0.992       .  S
H1022      O1378   0.992       .  S
C1024      C1025   1.402       .  A
C1024      C1029   1.413       .  A
C1025      C1026   1.406       .  A
C1026      C1027   1.418       .  A
C1026      O1031   1.371   1_655  S
C1027      C1028   1.404       .  A
C1028      C1029   1.400       .  A
C1028      H1032   1.083       .  S
C1029      O1390   1.373   1_545  S
O1033      C1386   1.373       .  S
O1033      H1034   0.993       .  S
C1036      C1037   1.405       .  A
C1036      C1041   1.412       .  A
C1037      C1038   1.408       .  A
C1037      H1042   1.083       .  S
C1038      C1039   1.423       .  A
C1038      O1043   1.367       .  S
C1039      C1040   1.408       .  A
C1040      C1041   1.394       .  A
C1040      H1044   1.084       .  S
C1041      O1045   1.372       .  S
O1043      H1047   0.992       .  S
O1045      H1046   0.992       .  S
C1048      C1049   1.410       .  A
C1049      H1054   1.083   1_455  S
C1050      C1051   1.409       .  A
C1050      O1055   1.371       .  S
C1051      C1052   1.397       .  A
C1052      C1053   1.396       .  A
C1052      H1056   1.084       .  S
C1053      O1057   1.372       .  S
O1055      H1059   0.992       .  S
O1057      H1058   0.992       .  S
C1060      C1418   1.407   1_545  A
C1060      C1422   1.411       .  A
C1061      C1417   1.407       .  A
C1061      C1062   1.400       .  A
C1061      H1423   1.084       .  S
C1062      C1063   1.405       .  A
C1062      O1067   1.370       .  S
C1063      C1064   1.406       .  A
C1064      C1065   1.407       .  A
C1064      H1068   1.084       .  S
C1065      C1417   1.411       .  A
C1065      O1426   1.372       .  S
H1066      C1418   1.084       .  S
O1067      H1071   0.992       .  S
O1069      C1422   1.372       .  S
O1069      H1427   0.992       .  S
H1070      O1426   0.992       .  S
O1072      C1088   1.271       .  A
O1072     Zn1078   1.995       .  S
C1073      O1089   1.273       .  A
C1073      O1086   1.279       .  A
C1073      C1384   1.494       .  S
O1074      C1087   1.280       .  A
O1074     Cd1081   2.121       .  S
O1075      C1093   1.278       .  A
O1075     Cd1084   2.074       .  S
O1076      C1090   1.273       .  A
O1076     Cd1080   2.073       .  S
O1077      C1088   1.273       .  A
O1077     Cd1080   2.056       .  S
Zn1078     O1089   2.017       .  S
Zn1078     O1091   1.995       .  S
Zn1078     O1083   1.939       .  S
O1079      C1090   1.279       .  A
O1079     Cd1084   2.106       .  S
Cd1080     O1082   2.046       .  S
Cd1080     O1083   1.995       .  S
Cd1081     O1085   2.107       .  S
Cd1081     O1094   2.107       .  S
Cd1081     O1083   2.033       .  S
O1082      C1092   1.272       .  A
O1083     Cd1084   1.997       .  S
Cd1084     O1086   2.092       .  S
O1085      C1092   1.280       .  A
C1087      O1091   1.271       .  A
C1087      C1405   1.498   1_655  S
C1088      C1360   1.477       .  S
C1090      C1369   1.492       .  S
C1092      C1393   1.492       .  S
C1093      O1094   1.282       .  A
C1093      C1417   1.487       .  S
C1095      C1096   1.537       .  S
C1095      C1101   1.537       .  S
C1095      C1099   1.539       .  S
C1095      C1396   1.540       .  S
C1096      H1103   1.087       .  S
C1096      C1097   1.361       .  D
C1097      C1098   1.540       .  S
C1097      C1408   1.485       .  S
C1098      C1102   1.550       .  S
C1098      C1100   1.540       .  S
C1098      H1104   1.111       .  S
C1099      H1105   1.079       .  S
C1099      C1100   1.370       .  D
C1100      C1159   1.477       .  S
C1101      H1106   1.087       .  S
C1101      C1102   1.365       .  D
C1102      C1420   1.486       .  S
C1107      C1113   1.535       .  S
C1107      C1111   1.528       .  S
C1107      C1357   1.528       .  S
C1108      H1115   1.081       .  S
C1109      C1110   1.557       .  S
C1109      C1372   1.493       .  S
C1110      C1112   1.550       .  S
C1110      H1116   1.110       .  S
C1111      H1117   1.087       .  S
C1112      C1194   1.481   1_556  S
C1113      H1118   1.085       .  S
C1114      C1381   1.493       .  S
O1119      C1135   1.275       .  A
C1120      O1136   1.275       .  A
C1120      O1133   1.272       .  A
C1120      C1288   1.492       .  S
O1121      C1134   1.281       .  A
O1122      C1140   1.273       .  A
O1122     Cd1131   2.040       .  S
O1123      C1137   1.269       .  A
O1124      C1135   1.271       .  A
O1124     Cd1127   2.028       .  S
Zn1125     O1138   2.016       .  S
O1126      C1137   1.273       .  A
Cd1127     O1129   2.042       .  S
Cd1127     O1130   1.982       .  S
Cd1128     O1132   2.121       .  S
Cd1128     O1130   2.025       .  S
O1129      C1139   1.270       .  A
Cd1131     O1133   2.058       .  S
O1132      C1139   1.281       .  A
C1134      O1138   1.275       .  A
C1134      C1345   1.486       .  S
C1135      C1300   1.471       .  S
C1137      C1309   1.469       .  S
C1139      C1321   1.498       .  S
C1140      O1141   1.280       .  A
C1140      C1333   1.485       .  S
C1142      C1143   1.532       .  S
C1142      C1148   1.534       .  S
C1142      C1146   1.528       .  S
C1142      C1297   1.524       .  S
C1143      H1150   1.081       .  S
C1143      C1144   1.360       .  D
C1144      C1145   1.543       .  S
C1144      C1312   1.469       .  S
C1145      C1149   1.548       .  S
C1145      C1147   1.542       .  S
C1145      H1151   1.109       .  S
C1146      H1152   1.087       .  S
C1146      C1147   1.362       .  D
C1147      C1206   1.473       .  S
C1148      H1153   1.086       .  S
C1148      C1149   1.369       .  D
C1149      C1285   1.499       .  S
C1154      C1155   1.539       .  S
C1154      C1160   1.535       .  S
C1154      C1158   1.536       .  S
C1154      C1336   1.539       .  S
C1155      H1162   1.087       .  S
C1155      C1156   1.365       .  D
C1156      C1157   1.542       .  S
C1156      C1324   1.491       .  S
C1157      C1161   1.549       .  S
C1157      C1159   1.540       .  S
C1157      H1163   1.110       .  S
C1158      H1164   1.077       .  S
C1158      C1159   1.366       .  D
C1160      H1165   1.087       .  S
C1160      C1161   1.366       .  D
C1161      C1348   1.489       .  S
O1166      C1182   1.271       .  A
O1166     Zn1172   2.003       .  S
C1167      O1183   1.274       .  A
C1167      O1180   1.277       .  A
C1167      C1276   1.480       .  S
O1168      C1181   1.281       .  A
O1168     Cd1175   2.116       .  S
O1169      C1187   1.278       .  A
O1169     Cd1178   2.075       .  S
O1170      C1184   1.272       .  A
O1170     Cd1174   2.061       .  S
O1171      C1182   1.272       .  A
O1171     Cd1174   2.063       .  S
Zn1172     O1183   2.020       .  S
Zn1172     O1185   2.007       .  S
Zn1172     O1177   1.943       .  S
O1173      C1184   1.277       .  A
O1173     Cd1178   2.089       .  S
Cd1174     O1176   2.053       .  S
Cd1174     O1177   1.999       .  S
Cd1175     O1179   2.103       .  S
Cd1175     O1188   2.113       .  S
Cd1175     O1177   2.029       .  S
O1176      C1186   1.274       .  A
O1177     Cd1178   1.998       .  S
Cd1178     O1180   2.088       .  S
O1179      C1186   1.279       .  A
C1181      O1185   1.273       .  A
C1181      C1225   1.488       .  S
C1182      C1252   1.460       .  S
C1184      C1261   1.491       .  S
C1186      C1216   1.486       .  S
C1187      O1188   1.281       .  A
C1187      C1240   1.499       .  S
C1189      C1195   1.533       .  S
C1189      C1193   1.545       .  S
C1189      C1213   1.541       .  S
C1190      H1197   1.086       .  S
C1191      C1192   1.546       .  S
C1191      C1228   1.483       .  S
C1192      C1194   1.539       .  S
C1192      H1198   1.111       .  S
C1193      H1199   1.082       .  S
C1195      H1200   1.087       .  S
C1196      C1237   1.485       .  S
C1201      C1202   1.530       .  S
C1201      C1207   1.531       .  S
C1201      C1205   1.536       .  S
C1201      C1249   1.527       .  S
C1202      H1209   1.086       .  S
C1202      C1203   1.367       .  D
C1203      C1204   1.550       .  S
C1203      C1264   1.493       .  S
C1204      C1208   1.546       .  S
C1204      C1206   1.542       .  S
C1204      H1210   1.110       .  S
C1205      H1211   1.082       .  S
C1205      C1206   1.367       .  D
C1207      H1212   1.087       .  S
C1207      C1208   1.359       .  D
C1208      C1273   1.480       .  S
C1213      C1214   1.412       .  A
C1213      C1218   1.422       .  A
C1214      C1215   1.397       .  A
C1214      H1219   1.082   1_565  S
C1215      C1216   1.408       .  A
C1215      O1220   1.373       .  S
C1216      C1217   1.402       .  A
C1217      C1218   1.408       .  A
C1217      H1221   1.084       .  S
C1218      O1222   1.368       .  S
O1220      H1224   0.992       .  S
O1222      H1223   0.992       .  S
C1225      C1226   1.404       .  A
C1225      C1230   1.415       .  A
C1226      C1227   1.404       .  A
C1226      H1231   1.083       .  S
C1227      C1228   1.411       .  A
C1227      O1232   1.371       .  S
C1228      C1229   1.400       .  A
C1229      C1230   1.404       .  A
C1230      O1234   1.372       .  S
O1232      H1236   0.993       .  S
C1237      C1238   1.405       .  A
C1237      C1242   1.404       .  A
C1238      C1239   1.411       .  A
C1238      H1243   1.084       .  S
C1239      C1240   1.416       .  A
C1239      O1244   1.371       .  S
C1240      C1241   1.410       .  A
C1241      C1242   1.399       .  A
C1241      H1245   1.083       .  S
C1242      O1246   1.372       .  S
O1244      H1248   0.993       .  S
O1246      H1247   0.992       .  S
C1249      C1250   1.414       .  A
C1249      C1254   1.417       .  A
C1250      C1251   1.402       .  A
C1250      H1255   1.077       .  S
C1251      C1252   1.402       .  A
C1251      O1256   1.372       .  S
C1252      C1253   1.394       .  A
C1253      C1254   1.393       .  A
C1253      H1257   1.084       .  S
C1254      O1258   1.373       .  S
O1256      H1260   0.993       .  S
O1258      H1259   0.992       .  S
C1261      C1266   1.410       .  A
C1262      C1263   1.404       .  A
C1262      H1267   1.083       .  S
C1263      C1264   1.407       .  A
C1263      O1268   1.369       .  S
C1264      C1265   1.407       .  A
C1265      H1269   1.084       .  S
C1266      O1270   1.372       .  S
O1268      H1272   0.992       .  S
O1270      H1271   0.992       .  S
C1273      C1274   1.404       .  A
C1273      C1278   1.406       .  A
C1274      H1279   1.084       .  S
C1275      C1276   1.410       .  A
C1275      O1280   1.371       .  S
C1277      C1278   1.401       .  A
C1277      H1281   1.084       .  S
C1278      O1282   1.370       .  S
O1280      H1284   0.992       .  S
O1282      H1283   0.993       .  S
C1285      C1286   1.406       .  A
C1285      C1290   1.412       .  A
C1286      C1287   1.396       .  A
C1286      H1291   1.083       .  S
C1287      C1288   1.412       .  A
C1287      O1292   1.372       .  S
C1288      C1289   1.408       .  A
C1289      C1290   1.410       .  A
C1289      H1293   1.083       .  S
C1290      O1294   1.372       .  S
O1292      H1296   0.993       .  S
O1294      H1295   0.992       .  S
C1297      C1298   1.411       .  A
C1297      C1302   1.415       .  A
C1298      C1299   1.395       .  A
C1298      H1303   1.075       .  S
C1299      C1300   1.405       .  A
C1299      O1304   1.372       .  S
C1300      C1301   1.402       .  A
C1301      C1302   1.393       .  A
C1301      H1305   1.084       .  S
C1302      O1306   1.373       .  S
O1306      H1307   0.992       .  S
C1309      C1310   1.402       .  A
C1309      C1314   1.408       .  A
C1310      C1311   1.400       .  A
C1310      H1315   1.084       .  S
C1311      C1312   1.408       .  A
C1311      O1316   1.372       .  S
C1312      C1313   1.399       .  A
C1313      C1314   1.396       .  A
C1313      H1317   1.081       .  S
C1314      O1318   1.372       .  S
O1316      H1320   0.992       .  S
C1321      C1322   1.409       .  A
C1321      C1326   1.419       .  A
C1322      C1323   1.409       .  A
C1322      H1327   1.083       .  S
C1323      C1324   1.410       .  A
C1323      O1328   1.371       .  S
C1324      C1325   1.401       .  A
C1325      C1326   1.397       .  A
C1325      H1329   1.084       .  S
C1326      O1330   1.372       .  S
O1328      H1332   0.991       .  S
C1333      C1334   1.402       .  A
C1333      C1338   1.410       .  A
C1334      C1335   1.405       .  A
C1334      H1339   1.084       .  S
C1335      C1336   1.423       .  A
C1335      O1340   1.367       .  S
C1336      C1337   1.408       .  A
C1337      C1338   1.393       .  A
C1337      H1341   1.084       .  S
O1340      H1344   0.992       .  S
O1342      H1343   0.993       .  S
C1345      C1346   1.407       .  A
C1345      C1350   1.409       .  A
C1346      C1347   1.403       .  A
C1346      H1351   1.084       .  S
C1347      C1348   1.407       .  A
C1347      O1352   1.372       .  S
C1348      C1349   1.407       .  A
C1349      C1350   1.406       .  A
C1349      H1353   1.084       .  S
C1350      O1354   1.371       .  S
O1352      H1356   0.992       .  S
O1354      H1355   0.992       .  S
C1357      C1358   1.409   1_655  A
C1357      C1362   1.415       .  A
C1358      C1359   1.395   1_455  A
C1359      C1360   1.409       .  A
C1359      O1364   1.372   1_655  S
C1360      C1361   1.402       .  A
C1361      C1362   1.398       .  A
C1361      H1365   1.084       .  S
C1362      O1366   1.374       .  S
O1366      H1367   0.992       .  S
C1369      C1370   1.404       .  A
C1369      C1374   1.415       .  A
C1370      C1371   1.403       .  A
C1370      H1375   1.083       .  S
C1371      C1372   1.413       .  A
C1371      O1376   1.372       .  S
C1372      C1373   1.403       .  A
C1373      C1374   1.408       .  A
C1374      O1378   1.372       .  S
O1376      H1380   0.993       .  S
C1381      C1382   1.402       .  A
C1381      C1386   1.413       .  A
C1382      C1383   1.406       .  A
C1383      C1384   1.417       .  A
C1383      O1388   1.371   1_655  S
C1384      C1385   1.404       .  A
C1385      C1386   1.400       .  A
C1385      H1389   1.083       .  S
O1390      H1391   0.993       .  S
C1393      C1394   1.404       .  A
C1393      C1398   1.412       .  A
C1394      C1395   1.408       .  A
C1394      H1399   1.083       .  S
C1395      C1396   1.423       .  A
C1395      O1400   1.367       .  S
C1396      C1397   1.408       .  A
C1397      C1398   1.394       .  A
C1397      H1401   1.084       .  S
C1398      O1402   1.372       .  S
O1400      H1404   0.992       .  S
O1402      H1403   0.992       .  S
C1405      C1406   1.410       .  A
C1406      H1411   1.083   1_455  S
C1407      C1408   1.409       .  A
C1407      O1412   1.371       .  S
C1408      C1409   1.397       .  A
C1409      C1410   1.396       .  A
C1409      H1413   1.084       .  S
C1410      O1414   1.372       .  S
O1412      H1416   0.991       .  S
O1414      H1415   0.992       .  S
C1418      C1419   1.401       .  A
C1419      C1420   1.405       .  A
C1419      O1424   1.370       .  S
C1420      C1421   1.406       .  A
C1421      C1422   1.407   1_565  A
C1421      H1425   1.084       .  S
O1424      H1428   0.992       .  S
