geometry optimzed in LAMMPS
_audit_creation_date              2020-11-30 
_audit_creation_method            'lammps2cif' 
_symmetry_space_group_name_H-M    'P1' 
_symmetry_Int_Tables_number       1 
_symmetry_cell_setting            triclinic 
loop_ 
_symmetry_equiv_pos_as_xyz 
  x,y,z 
_cell_length_a                    28.08745039 
_cell_length_b                    27.969397364596777 
_cell_length_c                    27.965974551921867 
_cell_angle_alpha                 89.98011463711897 
_cell_angle_beta                  90.01620394815357 
_cell_angle_gamma                 90.01639163733725 
loop_ 
_atom_site_label 
_atom_site_type_symbol 
_atom_site_fract_x 
_atom_site_fract_y 
_atom_site_fract_z 
_atom_site_charge 
O1          O  0.99486406  0.07521034  0.14021546    -0.80000
O2          O  0.99814043  0.08402627  0.86705603    -0.81500
O3          O  0.07893582  0.13817009  0.00250706    -0.78500
O4          O  0.92215389  0.13802007  0.00615527    -0.76900
O5          O  0.86412606  0.08065188  0.00318197    -0.78700
O6          O  0.13595242  0.07968354  0.00422175    -0.79700
O7          O  0.99486003  0.14033423  0.92641673    -0.81000
O8          O  0.99919869  0.13454100  0.08390459    -0.81300
Eu9        Eu  0.00017747  0.09866201  0.00374925     2.39200
O10         O  0.95173792  0.05163425  0.95379929    -0.88800
O11         O  0.04778890  0.04893678  0.05208596    -0.92400
C12         C  0.99602226  0.11955899  0.12745521     1.02300
C13         C  0.99523224  0.12759195  0.88203926     1.02100
C14         C  0.12275193  0.12394523  0.00306017     1.02100
C15         C  0.87819762  0.12456456  0.00562400     0.99900
H16         H  0.06838930  0.07160071  0.93436747     0.29700
O17         O  0.04841582  0.05135715  0.95384718    -1.01200
H18         H  0.93086321  0.06790794  0.07068880     0.29700
O19         O  0.95091305  0.04879908  0.05023492    -1.03700
O20         O  0.99877886  0.92685812  0.86214228    -0.80900
O21         O  0.99521156  0.91941011  0.13474392    -0.80500
O22         O  0.13572064  0.00140458  0.92420117    -0.78900
O23         O  0.86363379  0.00544530  0.92192513    -0.82200
O24         O  0.86356974  0.99836058  0.07845290    -0.80100
O25         O  0.13282604  0.99802202  0.08196713    -0.78700
O26         O  0.07701535  0.86434678  0.99544823    -0.80300
O27         O  0.91944307  0.86441335  0.99573271    -0.82200
O28         O  0.13428569  0.92240506  0.99819898    -0.78900
O29         O  0.86323013  0.92351812  0.99800493    -0.81600
O30         O  0.07856621  0.00202089  0.86579163    -0.77300
O31         O  0.07492660  0.99537459  0.13910355    -0.77400
O32         O  0.92043981  0.99515731  0.13679869    -0.77000
O33         O  0.92120990  0.00751659  0.86419288    -0.80500
O34         O  0.99854599  0.86708431  0.91789718    -0.79900
O35         O  0.99447780  0.86259606  0.07597547    -0.78300
Eu36       Eu  0.99958960  0.00424724  0.90395974     2.39800
Eu37       Eu  0.99823049  0.99839230  0.09759872     2.39600
Eu38       Eu  0.09563549  0.00122248  0.00228362     2.38400
Eu39       Eu  0.90278071  0.00181154  0.00017136     2.39900
Eu40       Eu  0.99824335  0.90363135  0.99796623     2.39800
O41         O  0.95003750  0.95130311  0.04752493    -0.92700
O42         O  0.04689820  0.95455263  0.95223636    -0.91600
C43         C  0.99841166  0.88228881  0.87425276     1.02500
C44         C  0.99356897  0.87569659  0.12028833     1.01200
C45         C  0.12232187  0.00104761  0.88002656     1.00600
C46         C  0.87725924  0.00704641  0.87790862     1.02600
C47         C  0.87680251  0.99595646  0.12258964     1.01500
C48         C  0.11892289  0.99543237  0.12591073     1.00400
C49         C  0.12095481  0.87828741  0.99544594     1.00400
C50         C  0.87582857  0.87915963  0.99678470     1.03000
H51         H  0.06623743  0.92977536  0.06793717     0.30400
O52         O  0.04680124  0.95051051  0.04845281    -1.04800
H53         H  0.93060272  0.93517301  0.92965193     0.32500
O54         O  0.95059739  0.95412784  0.95033045    -1.07400
O55         O  0.99461726  0.42065105  0.36510701    -0.80000
O56         O  0.00287002  0.42397660  0.63719448    -0.81500
O57         O  0.07958061  0.36478362  0.49948170    -0.78500
O58         O  0.92214531  0.36377686  0.50506647    -0.76900
O59         O  0.86427059  0.42119009  0.50781060    -0.78700
O60         O  0.13695038  0.42264519  0.49382833    -0.79700
O61         O  0.00013999  0.36538221  0.58035681    -0.81000
O62         O  0.99828483  0.36302139  0.42309351    -0.81300
Eu63       Eu  0.00075645  0.40330946  0.50108576     2.39200
O64         O  0.95493703  0.45271969  0.55087587    -0.88800
O65         O  0.04728639  0.45110062  0.44985571    -0.92400
C66         C  0.99531739  0.37670455  0.37908584     1.02300
C67         C  0.00019270  0.37976709  0.62421955     1.02100
C68         C  0.12332421  0.37868399  0.49601984     1.02100
C69         C  0.87811447  0.37707528  0.50747842     0.99900
H70         H  0.07206218  0.43246991  0.56641692     0.29700
O71         O  0.05158986  0.45221016  0.54697142    -1.01200
H72         H  0.92969211  0.43116691  0.43452255     0.29700
O73         O  0.95045493  0.45110295  0.45346086    -1.03700
O74         O  0.00608586  0.58143291  0.63433563    -0.80900
O75         O  0.99568075  0.57757663  0.36261702    -0.80500
O76         O  0.14028513  0.50105141  0.57165856    -0.78900
O77         O  0.86965772  0.50187405  0.58457655    -0.82200
O78         O  0.86253416  0.50275984  0.42604459    -0.80100
O79         O  0.13393364  0.50051549  0.41524322    -0.78700
O80         O  0.07986636  0.63666026  0.49804873    -0.80300
O81         O  0.92221165  0.63559445  0.50176907    -0.82200
O82         O  0.13703966  0.57844609  0.49708332    -0.78900
O83         O  0.86427855  0.57818853  0.50465585    -0.81600
O84         O  0.08584511  0.50251654  0.63241357    -0.77300
O85         O  0.07408232  0.49750931  0.35988305    -0.77400
O86         O  0.91806939  0.50298793  0.36631651    -0.77000
O87         O  0.92937096  0.50217810  0.64024971    -0.80500
O88         O  0.00464726  0.63865075  0.57582930    -0.79900
O89         O  0.99690176  0.63577518  0.42005449    -0.78300
Eu90       Eu  0.00545497  0.50180692  0.59676699     2.39800
Eu91       Eu  0.99746974  0.49956928  0.40292734     2.39600
Eu92       Eu  0.09746531  0.50050967  0.49538172     2.38400
Eu93       Eu  0.90415512  0.49998780  0.50372388     2.39900
Eu94       Eu  0.00123311  0.59738020  0.49867628     2.39800
O95         O  0.95097264  0.54805047  0.45311574    -0.92700
O96         O  0.05160735  0.54955199  0.54559502    -0.91600
C97         C  0.00534583  0.62534080  0.61997448     1.02500
C98         C  0.99501952  0.62168394  0.37618080     1.01200
C99         C  0.12899124  0.50152054  0.61634647     1.00600
C100        C  0.88500386  0.50279167  0.62811316     1.02600
C101        C  0.87467977  0.50417235  0.38146284     1.01500
C102        C  0.11854361  0.49856944  0.37173960     1.00400
C103        C  0.12368270  0.62251410  0.49825731     1.00400
C104        C  0.87823277  0.62218722  0.50397196     1.03000
H105        H  0.06709768  0.56896347  0.42738462     0.30400
O106        O  0.04799418  0.54916155  0.44815665    -1.04800
H107        H  0.93580665  0.56948866  0.57002630     0.32500
O108        O  0.95474722  0.54930127  0.54955649    -1.07400
O109        O  0.63480201  0.00214420  0.41834371    -0.80000
O110        O  0.36289689  0.99773963  0.42431354    -0.81500
O111        O  0.49768507  0.91743086  0.36545851    -0.78500
O112        O  0.49509465  0.07493730  0.36003980    -0.76900
O113        O  0.49515054  0.13438127  0.41624586    -0.78700
O114        O  0.49955285  0.86137296  0.42479774    -0.79700
O115        O  0.41869262  0.99742414  0.36463395    -0.81000
O116        O  0.57606898  0.99841093  0.36178542    -0.81300
Eu117      Eu  0.49808159  0.99795728  0.40207634     2.39200
O118        O  0.45013862  0.04675010  0.45096008    -0.88800
O119        O  0.54795688  0.95105237  0.45061697    -0.92400
C120        C  0.62023171  0.00030938  0.37459809     1.02300
C121        C  0.37526246  0.99696348  0.37990461     1.02100
C122        C  0.49821751  0.87361352  0.38039512     1.02100
C123        C  0.49440228  0.11935090  0.37249294     0.99900
H124        H  0.43073910  0.93015399  0.43373044     0.29700
O125        O  0.45076806  0.95066074  0.45283976    -1.01200
H126        H  0.56619318  0.06884073  0.42772868     0.29700
O127        O  0.54693537  0.04892276  0.44824129    -1.03700
O128        O  0.36624037  0.99853289  0.58210758    -0.80900
O129        O  0.63805035  0.00320545  0.57454977    -0.80500
O130        O  0.42285336  0.86273382  0.50137365    -0.78900
O131        O  0.41944592  0.13611429  0.49643708    -0.82200
O132        O  0.57648129  0.13823034  0.49848931    -0.80100
O133        O  0.57897637  0.86543114  0.50163596    -0.78700
O134        O  0.50501272  0.92523920  0.63759602    -0.80300
O135        O  0.50275081  0.08087268  0.63374588    -0.82200
O136        O  0.50217729  0.86667108  0.58074799    -0.78900
O137        O  0.50072578  0.13801626  0.57514337    -0.81600
O138        O  0.36480068  0.92015893  0.50334993    -0.77300
O139        O  0.63663982  0.92296818  0.49915552    -0.79400
O140        O  0.63443333  0.08077524  0.50177234    -0.77000
O141        O  0.36292182  0.07740410  0.50006833    -0.80500
O142        O  0.42512435  0.00027970  0.63819756    -0.79900
O143        O  0.58147449  0.00425536  0.63321049    -0.78300
Eu144      Eu  0.40313463  0.99932486  0.50204055     2.39800
Eu145      Eu  0.59654312  0.00152260  0.49724956     2.39600
Eu146      Eu  0.50043531  0.90369548  0.50130268     2.38400
Eu147      Eu  0.49844891  0.09781608  0.49671983     2.39900
Eu148      Eu  0.50189398  0.00220865  0.59600436     2.39800
O149        O  0.54796533  0.05029980  0.54507146    -0.92700
O150        O  0.45247057  0.95188481  0.55047635    -0.91600
C151        C  0.38084096  0.99900554  0.62598530     1.02500
C152        C  0.62522258  0.00412605  0.61884524     1.01200
C153        C  0.37890901  0.87620933  0.50248927     1.00600
C154        C  0.37573557  0.12167302  0.49748041     1.02600
C155        C  0.62039774  0.12474041  0.50153000     1.01500
C156        C  0.62291905  0.87886552  0.50133197     1.00400
C157        C  0.50465702  0.88104268  0.62452873     1.00400
C158        C  0.50251204  0.12465348  0.61936551     1.03000
H159        H  0.57012596  0.93409517  0.56758868     0.30400
O160        O  0.54970719  0.95335805  0.54761682    -1.04800
H161        H  0.43215559  0.06989758  0.56810250     0.32500
O162        O  0.45178375  0.04992808  0.54806369    -1.07400
O163        O  0.42581315  0.36322043  0.99921954    -0.80000
O164        O  0.42072924  0.63684129  0.99408745    -0.81500
O165        O  0.36061921  0.49770447  0.07040701    -0.78500
O166        O  0.37011900  0.49429741  0.91254127    -0.76900
O167        O  0.43050917  0.49707860  0.85763236    -0.78700
O168        O  0.41580248  0.49607832  0.13060266    -0.79700
O169        O  0.36429502  0.57803253  0.98964200    -0.81000
O170        O  0.36684065  0.41956355  0.99650287    -0.81300
Eu171      Eu  0.40412689  0.49918247  0.99367096     2.39200
O172        O  0.45422961  0.54822909  0.94720336    -0.88800
O173        O  0.45120663  0.45185311  0.04467525    -0.92400
C174        C  0.38160695  0.37584166  0.99823059     1.02300
C175        C  0.37718462  0.62244615  0.99069700     1.02100
C176        C  0.37254038  0.49575743  0.11504512     1.02100
C177        C  0.38601172  0.49421158  0.86916532     0.99900
H178        H  0.42747272  0.56821899  0.06363045     0.29700
O179        O  0.44875053  0.54871036  0.04485551    -1.01200
H180        H  0.43805424  0.43039012  0.92780375     0.29700
O181        O  0.45631822  0.45119793  0.94831648    -1.03700
O182        O  0.57584901  0.63895373  0.00231035    -0.80900
O183        O  0.58193439  0.36611885  0.00443312    -0.80500
O184        O  0.49085725  0.57884998  0.13496979    -0.78900
O185        O  0.50785218  0.57856148  0.86209349    -0.82200
O186        O  0.51065882  0.42136795  0.86330093    -0.80100
O187        O  0.49682508  0.42282528  0.13582765    -0.78700
O188        O  0.63160742  0.50358905  0.08571264    -0.80300
O189        O  0.64198221  0.50432156  0.92858300    -0.82200
O190        O  0.57118758  0.50447929  0.14049016    -0.78900
O191        O  0.58750048  0.50128233  0.86783954    -0.81600
O192        O  0.49563382  0.63694597  0.07744116    -0.77300
O193        O  0.49996150  0.36510270  0.07801339    -0.77400
O194        O  0.50764621  0.36427146  0.92163138    -0.77000
O195        O  0.50180082  0.63649632  0.91956539    -0.80500
O196        O  0.63456343  0.58253162  0.00783889    -0.79900
O197        O  0.63870334  0.42486714  0.00546739    -0.78300
Eu198      Eu  0.49886653  0.59775526  0.99852250     2.39800
Eu199      Eu  0.50325912  0.40414506  0.99964445     2.39600
Eu200      Eu  0.49586381  0.50093863  0.09575288     2.38400
Eu201      Eu  0.50650759  0.50023959  0.90193349     2.39900
Eu202      Eu  0.59779849  0.50282378  0.00450335     2.39800
O203        O  0.55335978  0.45305818  0.95332824    -0.92700
O204        O  0.54569455  0.55051277  0.04984079    -0.91600
C205        C  0.61987164  0.62623577  0.00591635     1.02500
C206        C  0.62555003  0.38059203  0.00582637     1.01200
C207        C  0.49245752  0.62282880  0.12134240     1.00600
C208        C  0.50560065  0.62260805  0.87568760     1.02600
C209        C  0.51017697  0.37739768  0.87747564     1.01500
C210        C  0.49816547  0.37883545  0.12200247     1.00400
C211        C  0.61571982  0.50454358  0.12906582     1.00400
C212        C  0.63065717  0.50327844  0.88383879     1.03000
H213        H  0.56738758  0.43389131  0.07178203     0.30400
O214        O  0.54822330  0.45329769  0.05070646    -1.04800
H215        H  0.57150170  0.57038785  0.93417888     0.32500
O216        O  0.55101339  0.55008191  0.95300588    -1.07400
C217        C  0.46735650  0.26265142  0.18337822    -0.01900
C218        C  0.49113012  0.26717328  0.22745958     0.06700
C219        C  0.51800573  0.30841297  0.23681618    -0.07800
C220        C  0.52134112  0.34513838  0.20289082     0.04200
C221        C  0.49672593  0.34103805  0.15896405    -0.15000
C222        C  0.47016289  0.29948111  0.14967228    -0.08400
C223        C  0.48961506  0.22862337  0.26377770     0.05100
C224        C  0.51481965  0.18627872  0.25528417    -0.09500
C225        C  0.51630644  0.14987521  0.28964912     0.00100
C226        C  0.49245163  0.15586611  0.33391229     0.00000
C227        C  0.46632975  0.19807140  0.34172082    -0.13000
C228        C  0.46439012  0.23407596  0.30691991     0.00400
C229        C  0.54446270  0.10798088  0.27909253     0.39800
C230        C  0.43531730  0.27577580  0.31549321     0.36400
C231        C  0.43952874  0.22070977  0.17225476     0.36100
C232        C  0.55230794  0.38515448  0.21298256     0.36900
N233        N  0.56717087  0.07464436  0.27013031    -0.43900
N234        N  0.41174548  0.30909045  0.32191349    -0.44400
N235        N  0.57747056  0.41693248  0.22102812    -0.41700
N236        N  0.41737040  0.18695992  0.16343973    -0.43200
H237        H  0.45118035  0.29590519  0.11607327     0.13000
H238        H  0.53710992  0.31144104  0.27039748     0.09500
H239        H  0.53411220  0.18207247  0.22194117     0.10500
H240        H  0.44697115  0.20276787  0.37493973     0.16400
C241        C  0.47011878  0.80991863  0.26407153    -0.01900
C242        C  0.48651796  0.76318953  0.27283362     0.06700
C243        C  0.50661741  0.75220995  0.31734801    -0.07800
C244        C  0.51132738  0.78733476  0.35286074     0.04200
C245        C  0.49548329  0.83476211  0.34394991    -0.15000
C246        C  0.47486223  0.84514781  0.29927411    -0.08400
C247        C  0.48697529  0.72671383  0.23437132     0.05100
C248        C  0.52116938  0.73095000  0.19808509    -0.09500
C249        C  0.52353971  0.69753447  0.16093792     0.00100
C250        C  0.49062294  0.65947849  0.15927202     0.00000
C251        C  0.45669198  0.65492869  0.19591328    -0.13000
C252        C  0.45470937  0.68809004  0.23342233     0.00400
C253        C  0.56206348  0.70119356  0.12696841     0.39800
C254        C  0.41919583  0.68183697  0.27019910     0.36400
C255        C  0.44740232  0.82224696  0.21943516     0.36100
C256        C  0.53442099  0.77382400  0.39702597     0.36900
N257        N  0.59334305  0.70386435  0.10018866    -0.43900
N258        N  0.39061117  0.67632156  0.29948570    -0.44400
N259        N  0.55302637  0.76280521  0.43228640    -0.41700
N260        N  0.42884741  0.83204283  0.18380968    -0.43200
H261        H  0.46167490  0.88083071  0.29189640     0.13000
H262        H  0.51983396  0.71634555  0.32385545     0.09500
H263        H  0.54664329  0.76008402  0.19933109     0.10500
H264        H  0.43163992  0.62540089  0.19516803     0.16400
C265        C  0.48659550  0.76259739  0.68675926    -0.01900
C266        C  0.50791554  0.77063504  0.73154500     0.06700
C267        C  0.52967218  0.81470891  0.74102470    -0.07800
C268        C  0.53004003  0.85102967  0.70654379     0.04200
C269        C  0.50683951  0.84376824  0.66212213    -0.15000
C270        C  0.48569684  0.79915916  0.65277362    -0.08400
C271        C  0.50764216  0.73333857  0.76898311     0.05100
C272        C  0.53744080  0.69354147  0.76391411    -0.09500
C273        C  0.53733364  0.65692947  0.79803371     0.00100
C274        C  0.50706121  0.66015348  0.83836621     0.00000
C275        C  0.47741051  0.70035356  0.84333599    -0.13000
C276        C  0.47722572  0.73661442  0.80883072     0.00400
C277        C  0.56978146  0.61745252  0.79135607     0.39800
C278        C  0.44459721  0.77618556  0.81403611     0.36400
C279        C  0.46529348  0.71711309  0.67501524     0.36100
C280        C  0.55683790  0.89393153  0.71683653     0.36900
N281        N  0.59595047  0.58603297  0.78556847    -0.43900
N282        N  0.41845329  0.80795243  0.81766502    -0.44400
N283        N  0.57884765  0.92791948  0.72517419    -0.41700
N284        N  0.44859753  0.68049244  0.66555482    -0.43200
H285        H  0.46820079  0.79274615  0.61879508     0.13000
H286        H  0.54706180  0.82037384  0.77520259     0.09500
H287        H  0.56083492  0.69115798  0.73314159     0.10500
H288        H  0.45366690  0.70301593  0.87380242     0.16400
C289        C  0.49206325  0.31543387  0.75835544    -0.01900
C290        C  0.50721863  0.26836255  0.76820346     0.06700
C291        C  0.52521741  0.25751348  0.81369534    -0.07800
C292        C  0.52767325  0.29244990  0.84948586     0.04200
C293        C  0.51110584  0.33943256  0.84020398    -0.15000
C294        C  0.49386259  0.35026831  0.79420887    -0.08400
C295        C  0.50627411  0.23059463  0.73084434     0.05100
C296        C  0.53210934  0.23783530  0.68851631    -0.09500
C297        C  0.53112867  0.20416948  0.65158406     0.00100
C298        C  0.50415363  0.16188581  0.65685954     0.00000
C299        C  0.47934923  0.15401054  0.69980858    -0.13000
C300        C  0.48015114  0.18785548  0.73665125     0.00400
C301        C  0.55975605  0.21319557  0.60969054     0.39800
C302        C  0.45332253  0.17812693  0.77963210     0.36400
C303        C  0.47413825  0.32871551  0.71177002     0.36100
C304        C  0.54943013  0.27935914  0.89443833     0.36900
N305        N  0.58288033  0.22080628  0.57631884    -0.43900
N306        N  0.43201613  0.16998057  0.81410601    -0.44400
N307        N  0.56713917  0.26879980  0.93029466    -0.41700
N308        N  0.46035609  0.33907416  0.67416343    -0.43200
H309        H  0.48107492  0.38597924  0.78624893     0.13000
H310        H  0.53830715  0.22175125  0.82095318     0.09500
H311        H  0.55332851  0.26998988  0.68441807     0.10500
H312        H  0.45878061  0.12148830  0.70441980     0.16400
C313        C  0.76345497  0.31233615  0.54127765    -0.01900
C314        C  0.76894455  0.26795331  0.51811594     0.06700
C315        C  0.81027777  0.25934863  0.49148525    -0.07800
C316        C  0.84578841  0.29435087  0.48703907     0.04200
C317        C  0.84082420  0.33900648  0.51049601    -0.15000
C318        C  0.79923805  0.34733009  0.53748134    -0.08400
C319        C  0.72993212  0.23199337  0.51667261     0.05100
C320        C  0.69255584  0.23894365  0.48414479    -0.09500
C321        C  0.65663296  0.20458979  0.47854981     0.00100
C322        C  0.65757385  0.16225179  0.50610466     0.00000
C323        C  0.69484729  0.15556213  0.53907740    -0.13000
C324        C  0.73080783  0.19000061  0.54460769     0.00400
C325        C  0.62083566  0.21245169  0.44234402     0.39800
C326        C  0.76797971  0.18157030  0.57926494     0.36400
C327        C  0.72117456  0.32248280  0.56885057     0.36100
C328        C  0.88516238  0.28444741  0.45537885     0.36900
N329        N  0.59235759  0.21864461  0.41307854    -0.43900
N330        N  0.79752831  0.17451490  0.60724115    -0.44400
N331        N  0.91629342  0.27628168  0.42954542    -0.41700
N332        N  0.68706491  0.33002538  0.59079927    -0.43200
H333        H  0.79468849  0.38119335  0.55578664     0.13000
H334        H  0.81395786  0.22569021  0.47257388     0.09500
H335        H  0.69214078  0.27090281  0.46216471     0.10500
H336        H  0.69571362  0.12343707  0.56081819     0.16400
C337        C  0.76217452  0.68740880  0.48027015    -0.01900
C338        C  0.76902715  0.73114694  0.50446120     0.06700
C339        C  0.81203680  0.73888743  0.52887245    -0.07800
C340        C  0.84812119  0.70420402  0.52899423     0.04200
C341        C  0.84096429  0.65997621  0.50544384    -0.15000
C342        C  0.79752145  0.65203238  0.48174271    -0.08400
C343        C  0.73209453  0.76949157  0.50405988     0.05100
C344        C  0.68745353  0.76053531  0.52466475    -0.09500
C345        C  0.65160098  0.79544261  0.52454972     0.00100
C346        C  0.66019319  0.84088830  0.50360812     0.00000
C347        C  0.70532436  0.84989834  0.48369745    -0.13000
C348        C  0.74082562  0.81461737  0.48330247     0.00400
C349        C  0.60685698  0.78368423  0.54720829     0.39800
C350        C  0.78501584  0.82445081  0.45887247     0.36400
C351        C  0.72066924  0.67935895  0.45089480     0.36100
C352        C  0.89202156  0.71493743  0.55368968     0.36900
N353        N  0.57092602  0.77427237  0.56515789    -0.43900
N354        N  0.82033793  0.83181883  0.43889769    -0.44400
N355        N  0.92753022  0.72341996  0.57290821    -0.41700
N356        N  0.68780847  0.67316932  0.42670445    -0.43200
H357        H  0.79186869  0.61875431  0.46265773     0.13000
H358        H  0.81760836  0.77244484  0.54748286     0.09500
H359        H  0.68064853  0.72602881  0.54102074     0.10500
H360        H  0.71252361  0.88414045  0.46699202     0.16400
C361        C  0.18907825  0.26426620  0.52396358    -0.01900
C362        C  0.22975514  0.26826091  0.49475377     0.06700
C363        C  0.23535738  0.30862955  0.46555570    -0.07800
C364        C  0.20120663  0.34506128  0.46530725     0.04200
C365        C  0.16054551  0.34133031  0.49492728    -0.15000
C366        C  0.15497432  0.30070210  0.52392428    -0.08400
C367        C  0.26740774  0.23115984  0.49494658     0.05100
C368        C  0.25754079  0.18593046  0.47587972    -0.09500
C369        C  0.29202023  0.14975087  0.47623256     0.00100
C370        C  0.33772341  0.15875783  0.49589182     0.00000
C371        C  0.34745474  0.20452729  0.51446434    -0.13000
C372        C  0.31272450  0.24044971  0.51434160     0.00400
C373        C  0.27960975  0.10433063  0.45503098     0.39800
C374        C  0.32358691  0.28618003  0.53574492     0.36400
C375        C  0.18189880  0.22338291  0.55465954     0.36100
C376        C  0.20790858  0.38475922  0.43292379     0.36900
N377        N  0.26947845  0.06795659  0.43812273    -0.43900
N378        N  0.33162680  0.32295073  0.55291522    -0.44400
N379        N  0.21330042  0.41643338  0.40683914    -0.41700
N380        N  0.17603558  0.19049594  0.57907883    -0.43200
H381        H  0.12402032  0.29754606  0.54690298     0.13000
H382        H  0.26646764  0.31150205  0.44275112     0.09500
H383        H  0.22269930  0.17893837  0.46064165     0.10500
H384        H  0.38201882  0.21207992  0.53001443     0.16400
C385        C  0.19097189  0.73632347  0.47040442    -0.01900
C386        C  0.23292689  0.73050300  0.49738798     0.06700
C387        C  0.23902708  0.68916357  0.52492944    -0.07800
C388        C  0.20408682  0.65346216  0.52573213     0.04200
C389        C  0.16146263  0.65949086  0.49929918    -0.15000
C390        C  0.15534636  0.70130872  0.47214318    -0.08400
C391        C  0.27066752  0.76745924  0.49807241     0.05100
C392        C  0.26766803  0.80446349  0.53168073    -0.09500
C393        C  0.30291379  0.83980115  0.53407999     0.00100
C394        C  0.34189844  0.83852655  0.50223750     0.00000
C395        C  0.34527042  0.80086815  0.46914934    -0.13000
C396        C  0.30996739  0.76547472  0.46681820     0.00400
C397        C  0.29961508  0.87556378  0.57110054     0.39800
C398        C  0.31455910  0.72762065  0.43202600     0.36400
C399        C  0.18440702  0.77714209  0.43953083     0.36100
C400        C  0.21293341  0.61152559  0.55453153     0.36900
N401        N  0.29733262  0.90399660  0.60103459    -0.43900
N402        N  0.31826725  0.69729959  0.40412480    -0.44400
N403        N  0.22078979  0.57799638  0.57745486    -0.41700
N404        N  0.17916841  0.80950019  0.41428011    -0.43200
H405        H  0.12323791  0.70601702  0.45109914     0.13000
H406        H  0.27137406  0.68473035  0.54567639     0.09500
H407        H  0.23790701  0.80543510  0.55637666     0.10500
H408        H  0.37514969  0.79951988  0.44461851     0.16400
C409        C  0.75419707  0.48590026  0.32267794    -0.01900
C410        C  0.76154160  0.50476376  0.27647202     0.06700
C411        C  0.80553289  0.52592314  0.26563949    -0.07800
C412        C  0.84231102  0.52757380  0.29950868     0.04200
C413        C  0.83589987  0.50641173  0.34513342    -0.15000
C414        C  0.79126601  0.48645864  0.35624241    -0.08400
C415        C  0.72369895  0.50353625  0.23912742     0.05100
C416        C  0.68086849  0.52825989  0.24680645    -0.09500
C417        C  0.64487001  0.52883329  0.21198985     0.00100
C418        C  0.65167797  0.50455214  0.16809367     0.00000
C419        C  0.69454563  0.47971018  0.16070187    -0.13000
C420        C  0.73025151  0.47890637  0.19559832     0.00400
C421        C  0.60235706  0.55618468  0.22174265     0.39800
C422        C  0.77295796  0.45180632  0.18607293     0.36400
C423        C  0.70915089  0.46515694  0.33635607     0.36100
C424        C  0.88497262  0.55366543  0.28716526     0.36900
N425        N  0.56844805  0.57821260  0.22994007    -0.43900
N426        N  0.80706856  0.43003175  0.17808959    -0.44400
N427        N  0.91874124  0.57516060  0.27713079    -0.41700
N428        N  0.67293073  0.44891966  0.34754996    -0.43200
H429        H  0.78537756  0.47058323  0.39112831     0.13000
H430        H  0.81083269  0.54198499  0.23072507     0.09500
H431        H  0.67582867  0.54773748  0.27995310     0.10500
H432        H  0.70011767  0.46039871  0.12753649     0.16400
C433        C  0.23191226  0.52578128  0.30302815    -0.01900
C434        C  0.22523830  0.49977124  0.26036506     0.06700
C435        C  0.18364425  0.47267977  0.25454867    -0.07800
C436        C  0.14872216  0.47126544  0.29038872     0.04200
C437        C  0.15468874  0.49826582  0.33279675    -0.15000
C438        C  0.19665824  0.52515575  0.33854441    -0.08400
C439        C  0.26218188  0.49850127  0.22232079     0.05100
C440        C  0.30291364  0.47043563  0.22934876    -0.09500
C441        C  0.33834023  0.46752681  0.19417739     0.00100
C442        C  0.33394950  0.49421479  0.15136144     0.00000
C443        C  0.29250048  0.52138085  0.14395998    -0.13000
C444        C  0.25665990  0.52346351  0.17883611     0.00400
C445        C  0.37727106  0.43466842  0.20184284     0.39800
C446        C  0.21480294  0.55186577  0.16942383     0.36400
C447        C  0.27482422  0.55300865  0.31130218     0.36100
C448        C  0.10873255  0.43947142  0.28383980     0.36900
N449        N  0.40796060  0.40776231  0.20800000    -0.43900
N450        N  0.18125018  0.57454370  0.16154572    -0.44400
N451        N  0.07705050  0.41354582  0.27851798    -0.41700
N452        N  0.30932403  0.57457304  0.31818973    -0.43200
H453        H  0.20199800  0.54577528  0.37094842     0.13000
H454        H  0.17899769  0.45167948  0.22227777     0.09500
H455        H  0.30657681  0.45004075  0.26214718     0.10500
H456        H  0.28844897  0.54177024  0.11121225     0.16400
C457        C  0.19945091  0.52473868  0.72963246    -0.01900
C458        C  0.24120715  0.49792473  0.72161593     0.06700
C459        C  0.24652363  0.47307240  0.67849188    -0.07800
C460        C  0.21083079  0.47418647  0.64354326     0.04200
C461        C  0.16838422  0.50030472  0.65176945    -0.15000
C462        C  0.16335640  0.52542831  0.69500634    -0.08400
C463        C  0.27972661  0.49517282  0.75786492     0.05100
C464        C  0.27277764  0.46726564  0.79888491    -0.09500
C465        C  0.30790896  0.46447097  0.83437413     0.00100
C466        C  0.35037468  0.49142794  0.82989562     0.00000
C467        C  0.35809870  0.51753720  0.78758584    -0.13000
C468        C  0.32337938  0.51919068  0.75153971     0.00400
C469        C  0.30047890  0.43166288  0.87357857     0.39800
C470        C  0.33278235  0.54632074  0.70863120     0.36400
C471        C  0.19345524  0.55284512  0.77251018     0.36100
C472        C  0.21833273  0.44692666  0.60033861     0.36900
N473        N  0.29455672  0.40476549  0.90447026    -0.43900
N474        N  0.34005768  0.56767571  0.67394195    -0.44400
N475        N  0.22457513  0.42518754  0.56570286    -0.41700
N476        N  0.18862833  0.57570512  0.80665237    -0.43200
H477        H  0.13139785  0.54619018  0.70152685     0.13000
H478        H  0.27865217  0.45247063  0.67229071     0.09500
H479        H  0.23995830  0.44719923  0.80288514     0.10500
H480        H  0.39081588  0.53764141  0.78311704     0.16400
C481        C  0.82300191  0.47982696  0.74648202    -0.01900
C482        C  0.77952216  0.50412460  0.74007627     0.06700
C483        C  0.77177266  0.53000108  0.69791263    -0.07800
C484        C  0.80613650  0.53107837  0.66169735     0.04200
C485        C  0.84892814  0.50484526  0.66687597    -0.15000
C486        C  0.85722241  0.48014970  0.70993662    -0.08400
C487        C  0.74159171  0.50315795  0.77699644     0.05100
C488        C  0.74833364  0.52827182  0.81980402    -0.09500
C489        C  0.71301896  0.52885774  0.85521581     0.00100
C490        C  0.66973220  0.50380435  0.84793058     0.00000
C491        C  0.66327227  0.47868665  0.80481774    -0.13000
C492        C  0.69872298  0.47806482  0.76961910     0.00400
C493        C  0.72173149  0.55711755  0.89753753     0.39800
C494        C  0.69087361  0.45054612  0.72663636     0.36400
C495        C  0.83259349  0.45369754  0.78996949     0.36100
C496        C  0.79739269  0.56129230  0.62074368     0.36900
N497        N  0.72929576  0.58001050  0.93116295    -0.43900
N498        N  0.68478625  0.42841057  0.69221536    -0.44400
N499        N  0.79029224  0.58587258  0.58823003    -0.41700
N500        N  0.83977691  0.43310771  0.82513996    -0.43200
H501        H  0.89010923  0.46041256  0.71475129     0.13000
H502        H  0.73884432  0.54979256  0.69353228     0.09500
H503        H  0.78118753  0.54793022  0.82528903     0.10500
H504        H  0.63058073  0.45894215  0.79875874     0.16400
C505        C  0.68232628  0.74201259  0.97509324    -0.01900
C506        C  0.72655120  0.73628025  0.99814173     0.06700
C507        C  0.73444951  0.69589998  0.02671137    -0.07800
C508        C  0.69943910  0.66061814  0.03159702     0.04200
C509        C  0.65618872  0.66467146  0.00600282    -0.15000
C510        C  0.64783234  0.70606152  0.97866836    -0.08400
C511        C  0.76423047  0.77318611  0.99535803     0.05100
C512        C  0.75901047  0.81480340  0.02247460    -0.09500
C513        C  0.79484061  0.84947399  0.02346428     0.00100
C514        C  0.83720378  0.84279710  0.99679711     0.00000
C515        C  0.84227026  0.80084299  0.96944520    -0.13000
C516        C  0.80597322  0.76630221  0.96827430     0.00400
C517        C  0.78774627  0.89040976  0.05402914     0.39800
C518        C  0.81142840  0.72465617  0.93821874     0.36400
C519        C  0.67161282  0.78438890  0.94762601     0.36100
C520        C  0.70769885  0.62247463  0.06542646     0.36900
N521        N  0.78156417  0.92300042  0.07871096    -0.43900
N522        N  0.81512685  0.69132726  0.91397750    -0.44400
N523        N  0.71433461  0.59249766  0.09317705    -0.41700
N524        N  0.66274775  0.81849281  0.92593930    -0.43200
H525        H  0.61451738  0.71010134  0.95946077     0.13000
H526        H  0.76774555  0.69253429  0.04609115     0.09500
H527        H  0.72706050  0.81975575  0.04370429     0.10500
H528        H  0.87422070  0.79540754  0.94837498     0.16400
C529        C  0.76320450  0.19033450  0.98060421    -0.01900
C530        C  0.77069393  0.23415051  0.00426150     0.06700
C531        C  0.81281958  0.24135026  0.03006900    -0.07800
C532        C  0.84773246  0.20570993  0.03224575     0.04200
C533        C  0.84114234  0.16226307  0.00711525    -0.15000
C534        C  0.79841975  0.15497506  0.98194761    -0.08400
C535        C  0.73409965  0.27218607  0.00439901     0.05100
C536        C  0.69454566  0.26708894  0.03441594    -0.09500
C537        C  0.65925579  0.30234260  0.03618026     0.00100
C538        C  0.66321907  0.34360081  0.00717729     0.00000
C539        C  0.70346043  0.34900997  0.97779185    -0.13000
C540        C  0.73873146  0.31361390  0.97609759     0.00400
C541        C  0.62055274  0.29605595  0.06957324     0.39800
C542        C  0.77880868  0.31992769  0.94437441     0.36400
C543        C  0.71982802  0.18098683  0.95451254     0.36100
C544        C  0.88852100  0.21373687  0.06268098     0.36900
N545        N  0.58993090  0.29064243  0.09671542    -0.43900
N546        N  0.81090229  0.32485872  0.91889617    -0.44400
N547        N  0.92088056  0.22015219  0.08749150    -0.41700
N548        N  0.68506546  0.17320861  0.93369531    -0.43200
H549        H  0.79273504  0.12180234  0.96269108     0.13000
H550        H  0.81793561  0.27459862  0.04937056     0.09500
H551        H  0.69149769  0.23556442  0.05682677     0.10500
H552        H  0.70682516  0.38044616  0.95531537     0.16400
C553        C  0.18428915  0.75895629  0.01000427    -0.01900
C554        C  0.22972871  0.76851296  0.99076235     0.06700
C555        C  0.23907893  0.81404348  0.97195402    -0.07800
C556        C  0.20433821  0.85006229  0.97256863     0.04200
C557        C  0.15879499  0.84087999  0.99252439    -0.15000
C558        C  0.14936149  0.79483246  0.01055081    -0.08400
C559        C  0.26810059  0.73165245  0.99024303     0.05100
C560        C  0.26216923  0.69008949  0.96273493    -0.09500
C561        C  0.29719982  0.65429670  0.96194650     0.00100
C562        C  0.33944746  0.65984182  0.98898695     0.00000
C563        C  0.34566927  0.70203391  0.01570183    -0.13000
C564        C  0.31041943  0.73753915  0.01679116     0.00400
C565        C  0.28942166  0.61298441  0.93196805     0.39800
C566        C  0.31752568  0.77884325  0.04696196     0.36400
C567        C  0.17331674  0.71314125  0.03110786     0.36100
C568        C  0.21626097  0.89547654  0.95104842     0.36900
N569        N  0.28325714  0.57985037  0.90796596    -0.43900
N570        N  0.32290109  0.81191738  0.07123226    -0.44400
N571        N  0.22598415  0.93179542  0.93376804    -0.41700
N572        N  0.16465927  0.67644893  0.04815666    -0.43200
H573        H  0.11489511  0.78703886  0.02619133     0.13000
H574        H  0.27375581  0.82139381  0.95653304     0.09500
H575        H  0.22999916  0.68566124  0.94173376     0.10500
H576        H  0.37767306  0.70677723  0.03689654     0.16400
C577        C  0.26694901  0.31058219  0.02748827    -0.01900
C578        C  0.27258795  0.26706829  0.00278052     0.06700
C579        C  0.31493117  0.25858095  0.97759789    -0.07800
C580        C  0.35127007  0.29302598  0.97626926     0.04200
C581        C  0.34494386  0.33752046  0.99956986    -0.15000
C582        C  0.30255425  0.34562648  0.02506046    -0.08400
C583        C  0.23464659  0.22997419  0.00293641     0.05100
C584        C  0.19623212  0.23436670  0.97117285    -0.09500
C585        C  0.15949474  0.20030818  0.97053203     0.00100
C586        C  0.16083585  0.16090790  0.00226520     0.00000
C587        C  0.19976613  0.15634540  0.03357600    -0.13000
C588        C  0.23626249  0.19063837  0.03437882     0.00400
C589        C  0.12212040  0.20542222  0.93542037     0.39800
C590        C  0.27442628  0.18556956  0.06859150     0.36400
C591        C  0.22573948  0.31917603  0.05707995     0.36100
C592        C  0.39419383  0.28210424  0.94999973     0.36900
N593        N  0.09241812  0.20949028  0.90701914    -0.43900
N594        N  0.30491096  0.18181626  0.09618370    -0.44400
N595        N  0.42885482  0.27348289  0.92936089    -0.41700
N596        N  0.19303780  0.32575278  0.08135971    -0.43200
H597        H  0.29766201  0.37905073  0.04409961     0.13000
H598        H  0.31957446  0.22488606  0.95899233     0.09500
H599        H  0.19513418  0.26438616  0.94662590     0.10500
H600        H  0.20122094  0.12635307  0.05812622     0.16400
C601        C  0.68703370  0.03143937  0.73632289    -0.01900
C602        C  0.73295469  0.01236703  0.72918699     0.06700
C603        C  0.74346515  0.98994422  0.68556791    -0.07800
C604        C  0.70908897  0.98618452  0.64931967     0.04200
C605        C  0.66312225  0.00599459  0.65612361    -0.15000
C606        C  0.65285499  0.02835498  0.69997393    -0.08400
C607        C  0.76964722  0.01287402  0.76764545     0.05100
C608        C  0.76165847  0.98606656  0.80927528    -0.09500
C609        C  0.79598162  0.98374863  0.84558576     0.00100
C610        C  0.83972123  0.00843692  0.84044614     0.00000
C611        C  0.84761585  0.03527584  0.79868260    -0.13000
C612        C  0.81291576  0.03805587  0.76270708     0.00400
C613        C  0.78606816  0.95407377  0.88670169     0.39800
C614        C  0.82172791  0.06855160  0.72202078     0.36400
C615        C  0.67415959  0.05483956  0.78045317     0.36100
C616        C  0.72136811  0.95948934  0.60685743     0.36900
N617        N  0.77820575  0.93031690  0.91966334    -0.43900
N618        N  0.82885909  0.09347746  0.68977521    -0.44400
N619        N  0.73131903  0.93776574  0.57308698    -0.41700
N620        N  0.66344116  0.07354490  0.81574356    -0.43200
H621        H  0.61795642  0.04384289  0.70591277     0.13000
H622        H  0.77837430  0.97420402  0.68033747     0.09500
H623        H  0.72867222  0.96623765  0.81305036     0.10500
H624        H  0.88062775  0.05498464  0.79454171     0.16400
C625        C  0.23692130  0.02974186  0.81482680    -0.01900
C626        C  0.23296330  0.00166798  0.77288448     0.06700
C627        C  0.19283162  0.97217993  0.76734535    -0.07800
C628        C  0.15647957  0.97137906  0.80161796     0.04200
C629        C  0.16009180  0.00005565  0.84303188    -0.15000
C630        C  0.20080543  0.02846874  0.84939085    -0.08400
C631        C  0.27059134  0.00134650  0.73505134     0.05100
C632        C  0.31782419  0.99111754  0.74779330    -0.09500
C633        C  0.35436452  0.99044148  0.71361787     0.00100
C634        C  0.34382903  0.99889741  0.66461961     0.00000
C635        C  0.29616789  0.00830132  0.65201102    -0.13000
C636        C  0.25994120  0.00984198  0.68639985     0.00400
C637        C  0.40198641  0.98105674  0.73069350     0.39800
C638        C  0.21235899  0.02155237  0.67067346     0.36400
C639        C  0.27708985  0.06089199  0.82314724     0.36100
C640        C  0.11692769  0.93925539  0.79419654     0.36900
N641        N  0.43995162  0.97392286  0.74513333    -0.43900
N642        N  0.17432992  0.03079362  0.65769164    -0.44400
N643        N  0.08545763  0.91330257  0.78794196    -0.41700
N644        N  0.30925679  0.08571304  0.83044356    -0.43200
H645        H  0.20400920  0.05052986  0.88113704     0.13000
H646        H  0.19009276  0.94921886  0.73622174     0.09500
H647        H  0.32627167  0.98346267  0.78486400     0.10500
H648        H  0.28695543  0.01534699  0.61501862     0.16400
C649        C  0.30551965  0.02297263  0.26725039    -0.01900
C650        C  0.26365453  0.99578649  0.27426823     0.06700
C651        C  0.25887179  0.96868245  0.31620610    -0.07800
C652        C  0.29451044  0.96879290  0.35117364     0.04200
C653        C  0.33666442  0.99552943  0.34388939    -0.15000
C654        C  0.34175512  0.02207179  0.30160685    -0.08400
C655        C  0.22543316  0.99382927  0.23747243     0.05100
C656        C  0.23719358  0.97863753  0.19120157    -0.09500
C657        C  0.20315048  0.97768194  0.15472036     0.00100
C658        C  0.15588097  0.99271711  0.16406396     0.00000
C659        C  0.14368232  0.00576443  0.21115809    -0.13000
C660        C  0.17779057  0.00621124  0.24773337     0.00400
C661        C  0.21774351  0.95952973  0.10865376     0.39800
C662        C  0.16317979  0.02062118  0.29512569     0.36400
C663        C  0.31153818  0.05342063  0.22594941     0.36100
C664        C  0.28732665  0.94003572  0.39348142     0.36900
N665        N  0.22937837  0.94481159  0.07179338    -0.43900
N666        N  0.15137519  0.03175619  0.33317701    -0.44400
N667        N  0.28139539  0.91719524  0.42747358    -0.41700
N668        N  0.31652177  0.07800637  0.19303101    -0.43200
H669        H  0.37363692  0.04323939  0.29595435     0.13000
H670        H  0.22729287  0.94698035  0.32146421     0.09500
H671        H  0.27331708  0.96721233  0.18360023     0.10500
H672        H  0.10756353  0.01668925  0.21940570     0.16400
C673        C  0.73449089  0.02955577  0.30863903    -0.01900
C674        C  0.72848052  0.00426407  0.26551319     0.06700
C675        C  0.68686008  0.97775904  0.25806473    -0.07800
C676        C  0.65136273  0.97565349  0.29308032     0.04200
C677        C  0.65698693  0.00109275  0.33646292    -0.15000
C678        C  0.69887201  0.02782184  0.34368198    -0.08400
C679        C  0.76631109  0.00266714  0.22873555     0.05100
C680        C  0.80780398  0.97650576  0.23826053    -0.09500
C681        C  0.84389938  0.97261555  0.20397955     0.00100
C682        C  0.83896009  0.99610768  0.15940985     0.00000
C683        C  0.79702221  0.02181408  0.14994083    -0.13000
C684        C  0.76072909  0.02495235  0.18392886     0.00400
C685        C  0.88427523  0.94253537  0.21487382     0.39800
C686        C  0.71831963  0.05152996  0.17199850     0.36400
C687        C  0.77664300  0.05792684  0.31719773     0.36100
C688        C  0.61110337  0.94471465  0.28451997     0.36900
N689        N  0.91623345  0.91804955  0.22396472    -0.43900
N690        N  0.68442988  0.07273851  0.16182548    -0.44400
N691        N  0.57916697  0.91953274  0.27748099    -0.41700
N692        N  0.81050730  0.08061382  0.32367293    -0.43200
H693        H  0.70365343  0.04773925  0.37660729     0.13000
H694        H  0.68272434  0.95758136  0.22519694     0.09500
H695        H  0.81154483  0.95836524  0.27235359     0.10500
H696        H  0.79271732  0.04006839  0.11598199     0.16400
C697        C  0.01270337  0.32082606  0.74573052    -0.01900
C698        C  0.99277035  0.27537982  0.73757336     0.06700
C699        C  0.97363423  0.26461948  0.69262310    -0.07800
C700        C  0.97478388  0.29812465  0.65546624     0.04200
C701        C  0.99677036  0.34319041  0.66269928    -0.15000
C702        C  0.01491004  0.35409457  0.70837184    -0.08400
C703        C  0.99338039  0.23763391  0.77469512     0.05100
C704        C  0.96094596  0.23967989  0.81272413    -0.09500
C705        C  0.96051441  0.20400966  0.84797164     0.00100
C706        C  0.99319972  0.16563695  0.84535926     0.00000
C707        C  0.02506245  0.16341919  0.80675805    -0.13000
C708        C  0.02552692  0.19911633  0.77172681     0.00400
C709        C  0.92476338  0.20648483  0.88496987     0.39800
C710        C  0.05998452  0.19624837  0.73352309     0.36400
C711        C  0.03174731  0.33380743  0.79189424     0.36100
C712        C  0.95098076  0.28583024  0.61136719     0.36900
N713        N  0.89573196  0.20867923  0.91423085    -0.43900
N714        N  0.08755102  0.19436079  0.70283882    -0.44400
N715        N  0.93143745  0.27580886  0.57634144    -0.41700
N716        N  0.04681411  0.34441638  0.82892026    -0.43200
H717        H  0.03132234  0.38857723  0.71492734     0.13000
H718        H  0.95749327  0.22987259  0.68669747     0.09500
H719        H  0.93568030  0.26894887  0.81455245     0.10500
H720        H  0.05032121  0.13417612  0.80447512     0.16400
C721        C  0.03198524  0.74133764  0.68457773    -0.01900
C722        C  0.00278801  0.73745977  0.72543961     0.06700
C723        C  0.97419224  0.69679013  0.73123493    -0.07800
C724        C  0.97467179  0.65992946  0.69743431     0.04200
C725        C  0.00429986  0.66335773  0.65676869    -0.15000
C726        C  0.03234084  0.70451973  0.65052867    -0.08400
C727        C  0.00221315  0.77468411  0.76333657     0.05100
C728        C  0.98116435  0.81916643  0.75403031    -0.09500
C729        C  0.97861637  0.85442490  0.78963699     0.00100
C730        C  0.99845401  0.84571993  0.83547754     0.00000
C731        C  0.01905776  0.80075184  0.84460130    -0.13000
C732        C  0.02071518  0.76536106  0.80921873     0.00400
C733        C  0.95345875  0.89812038  0.77864420     0.39800
C734        C  0.04172781  0.71961001  0.82053633     0.36400
C735        C  0.06290074  0.78198035  0.67759563     0.36100
C736        C  0.94270177  0.62012162  0.70430773     0.36900
N737        N  0.93302909  0.93297183  0.76985922    -0.43900
N738        N  0.05813144  0.68263314  0.82909128    -0.44400
N739        N  0.91682665  0.58843845  0.70991963    -0.41700
N740        N  0.08786114  0.81441656  0.67192557    -0.43200
H741        H  0.05512362  0.70758171  0.61935881     0.13000
H742        H  0.95127861  0.69396578  0.76232958     0.09500
H743        H  0.96583869  0.82596011  0.71907461     0.10500
H744        H  0.03429417  0.79320622  0.87942985     0.16400
C745        C  0.01228395  0.81293404  0.23864366    -0.01900
C746        C  0.99072242  0.76818740  0.23042747     0.06700
C747        C  0.96748861  0.75974215  0.18689037    -0.07800
C748        C  0.96660594  0.79465970  0.15103959     0.04200
C749        C  0.99121027  0.83826285  0.15776751    -0.15000
C750        C  0.01318257  0.84709493  0.20213166    -0.08400
C751        C  0.99137314  0.72993453  0.26703767     0.05100
C752        C  0.96590676  0.73654930  0.30955730    -0.09500
C753        C  0.96590376  0.70146046  0.34517415     0.00100
C754        C  0.99232061  0.65889226  0.33865906     0.00000
C755        C  0.01690459  0.65188141  0.29545804    -0.13000
C756        C  0.01654868  0.68694449  0.25971867     0.00400
C757        C  0.93662180  0.70925874  0.38689018     0.39800
C758        C  0.04297142  0.67856756  0.21621198     0.36400
C759        C  0.03331207  0.82475550  0.28428989     0.36100
C760        C  0.93724594  0.78610198  0.10953452     0.36900
N761        N  0.91280325  0.71569136  0.42002180    -0.43900
N762        N  0.06393378  0.67204686  0.18119370    -0.44400
N763        N  0.91289947  0.77923927  0.07685999    -0.41700
N764        N  0.04944909  0.83453416  0.32109651    -0.43200
H765        H  0.03113405  0.88085904  0.20841540     0.13000
H766        H  0.94911624  0.72606760  0.18137713     0.09500
H767        H  0.94556957  0.76911934  0.31466615     0.10500
H768        H  0.03709378  0.61929541  0.28990762     0.16400
C769        C  0.02420129  0.23176011  0.19647905    -0.01900
C770        C  0.99049430  0.23021099  0.23368046     0.06700
C771        C  0.95819199  0.19208467  0.23610877    -0.07800
C772        C  0.95942771  0.15528307  0.20211155     0.04200
C773        C  0.99377302  0.15643165  0.16515994    -0.15000
C774        C  0.02560183  0.19503642  0.16263084    -0.08400
C775        C  0.99028258  0.26687924  0.27174027     0.05100
C776        C  0.96324394  0.30853173  0.26574814    -0.09500
C777        C  0.96398950  0.34464638  0.30045302     0.00100
C778        C  0.99249485  0.33921768  0.34188019     0.00000
C779        C  0.01889177  0.29700702  0.34794692    -0.13000
C780        C  0.01800070  0.26102600  0.31325351     0.00400
C781        C  0.93401797  0.38606235  0.29343882     0.39800
C782        C  0.04595676  0.21836123  0.32066329     0.36400
C783        C  0.05764617  0.27073941  0.19237711     0.36100
C784        C  0.92373386  0.11820802  0.20473511     0.36900
N785        N  0.91004842  0.41929531  0.28810541    -0.43900
N786        N  0.06815585  0.18398207  0.32634752    -0.44400
N787        N  0.89471864  0.08892195  0.20706951    -0.41700
N788        N  0.08435406  0.30205703  0.18892472    -0.43200
H789        H  0.05177872  0.19641829  0.13414541     0.13000
H790        H  0.93208103  0.19110778  0.26466787     0.09500
H791        H  0.94165276  0.31280419  0.23386794     0.10500
H792        H  0.04080384  0.29237186  0.37955304     0.16400
loop_ 
_geom_bond_atom_site_label_1 
_geom_bond_atom_site_label_2 
_geom_bond_distance 
_geom_bond_site_symmetry_2 
_ccdc_geom_bond_type 
O1           C12   1.291       .  A
O1          Eu37   2.459   1_545  S
O2           C13   1.291       .  A
O2          Eu36   2.459       .  S
O3           C14   1.294       .  A
O3           Eu9   2.473       .  S
O4           C15   1.291       .  A
O4           Eu9   2.454   1_655  S
O5           C15   1.292       .  A
O5          Eu39   2.460       .  S
O6           C14   1.293       .  A
O6          Eu38   2.470       .  S
O7           C13   1.291       .  A
O7           Eu9   2.461   1_656  S
O8           C12   1.291       .  A
O8           Eu9   2.456   1_655  S
Eu9          O19   2.355   1_455  S
Eu9          O11   2.356       .  S
Eu9          O10   2.352   1_454  S
Eu9          O17   2.353   1_554  S
O10         Eu39   2.348   1_556  S
O10         Eu36   2.347       .  S
O11         Eu37   2.357   1_445  S
O11         Eu38   2.352       .  S
C12         C773   1.477       .  S
C13         C706   1.479       .  S
C14         C586   1.488       .  S
C15         C533   1.482       .  S
H16          O17   0.965       .  S
O17         Eu38   2.358   1_556  S
O17         Eu36   2.358   1_455  S
H18          O19   0.965       .  S
O19         Eu37   2.347   1_545  S
O19         Eu39   2.348       .  S
O20          C43   1.292       .  A
O20         Eu36   2.461   1_565  S
O21          C44   1.289       .  A
O21         Eu37   2.442       .  S
O22          C45   1.291       .  A
O22         Eu38   2.457   1_556  S
O23          C46   1.290       .  A
O23         Eu39   2.451   1_556  S
O24          C47   1.291       .  A
O24         Eu39   2.453   1_565  S
O25          C48   1.292       .  A
O25         Eu38   2.462   1_565  S
O26          C49   1.294       .  A
O26         Eu40   2.472   1_455  S
O27          C50   1.293       .  A
O27         Eu40   2.471       .  S
O28          C49   1.292       .  A
O28         Eu38   2.460   1_566  S
O29          C50   1.291       .  A
O29         Eu39   2.456   1_566  S
O30          C45   1.292       .  A
O30         Eu36   2.463   1_455  S
O31          C48   1.290       .  A
O31         Eu37   2.448   1_455  S
O32          C47   1.289       .  A
O32         Eu37   2.446       .  S
O33          C46   1.293       .  A
O33         Eu36   2.468       .  S
O34          C43   1.292       .  A
O34         Eu40   2.462       .  S
O35          C44   1.293       .  A
O35         Eu40   2.467   1_554  S
Eu36         O54   2.354   1_545  S
Eu36         O42   2.349   1_645  S
Eu37         O41   2.351       .  S
Eu37         O52   2.355   1_655  S
Eu38         O52   2.358   1_545  S
Eu38         O42   2.353   1_544  S
Eu39         O41   2.347   1_545  S
Eu39         O54   2.351   1_544  S
Eu40         O41   2.353   1_556  S
Eu40         O52   2.361   1_656  S
Eu40         O54   2.358       .  S
Eu40         O42   2.352   1_655  S
C43         C730   1.491       .  S
C44         C749   1.483       .  S
C45         C629   1.482       .  S
C46         C610   1.487       .  S
C47         C682   1.480       .  S
C48         C658   1.490       .  S
C49         C557   1.494       .  S
C50         C514   1.487       .  S
H51          O52   0.965       .  S
H53          O54   0.965       .  S
O55          C66   1.290       .  A
O55         Eu91   2.449       .  S
O56          C67   1.291       .  A
O56         Eu90   2.454       .  S
O57          C68   1.292       .  A
O57         Eu63   2.463       .  S
O58          C69   1.293       .  A
O58         Eu63   2.472   1_655  S
O59          C69   1.294       .  A
O59         Eu93   2.475       .  S
O60          C68   1.289       .  A
O60         Eu92   2.445       .  S
O61          C67   1.291       .  A
O61         Eu63   2.457       .  S
O62          C66   1.291       .  A
O62         Eu63   2.456   1_655  S
Eu63         O73   2.357   1_455  S
Eu63         O65   2.355       .  S
Eu63         O64   2.347   1_455  S
Eu63         O71   2.357       .  S
O64         Eu93   2.349       .  S
O64         Eu90   2.355   1_655  S
O65         Eu91   2.349   1_455  S
O65         Eu92   2.349       .  S
C66         C778   1.479       .  S
C67         C701   1.488   1_455  S
C68         C365   1.479       .  S
C69         C317   1.496       .  S
H70          O71   0.965       .  S
O71         Eu92   2.359       .  S
O71         Eu90   2.355       .  S
H72          O73   0.965       .  S
O73         Eu91   2.362       .  S
O73         Eu93   2.354       .  S
O74          C97   1.292       .  A
O74         Eu90   2.463       .  S
O75          C98   1.291       .  A
O75         Eu91   2.456       .  S
O76          C99   1.290       .  A
O76         Eu92   2.449       .  S
O77         C100   1.292       .  A
O77         Eu93   2.461       .  S
O78         C101   1.293       .  A
O78         Eu93   2.468       .  S
O79         C102   1.292       .  A
O79         Eu92   2.464       .  S
O80         C103   1.293       .  A
O80         Eu94   2.467       .  S
O81         C104   1.292       .  A
O81         Eu94   2.465   1_655  S
O82         C103   1.289       .  A
O82         Eu92   2.447       .  S
O83         C104   1.292       .  A
O83         Eu93   2.458       .  S
O84          C99   1.293       .  A
O84         Eu90   2.468       .  S
O85         C102   1.292       .  A
O85         Eu91   2.467   1_455  S
O86         C101   1.291       .  A
O86         Eu91   2.456       .  S
O87         C100   1.292       .  A
O87         Eu90   2.459   1_655  S
O88          C97   1.289       .  A
O88         Eu94   2.449       .  S
O89          C98   1.290       .  A
O89         Eu94   2.450   1_655  S
Eu90        O108   2.353   1_455  S
Eu90         O96   2.347       .  S
Eu91         O95   2.349       .  S
Eu91        O106   2.353   1_655  S
Eu92        O106   2.351       .  S
Eu92         O96   2.349       .  S
Eu93         O95   2.353       .  S
Eu93        O108   2.359       .  S
Eu94         O95   2.349   1_455  S
Eu94        O106   2.354       .  S
Eu94        O108   2.353   1_455  S
Eu94         O96   2.348       .  S
C97         C725   1.480       .  S
C98         C754   1.480       .  S
C99         C461   1.485       .  S
C100        C485   1.485       .  S
C101        C413   1.491       .  S
C102        C437   1.489       .  S
C103        C389   1.482       .  S
C104        C341   1.488       .  S
H105        O106   0.965       .  S
H107        O108   0.964       .  S
O109        C120   1.291       .  A
O109       Eu145   2.455       .  S
O110        C121   1.290       .  A
O110       Eu144   2.450       .  S
O111        C122   1.295       .  A
O111       Eu117   2.474       .  S
O112        C123   1.290       .  A
O112       Eu117   2.454   1_545  S
O113        C123   1.294       .  A
O113       Eu147   2.473       .  S
O114        C122   1.289       .  A
O114       Eu146   2.446       .  S
O115        C121   1.293       .  A
O115       Eu117   2.463       .  S
O116        C120   1.292   1_565  A
O116       Eu117   2.464       .  S
Eu117       O127   2.362   1_565  S
Eu117       O119   2.351       .  S
Eu117       O118   2.355   1_565  S
Eu117       O125   2.352       .  S
O118       Eu147   2.349       .  S
O118       Eu144   2.354   1_545  S
O119       Eu145   2.357   1_565  S
O119       Eu146   2.355       .  S
C120        C677   1.485       .  S
C121        C653   1.480       .  S
C122        C245   1.492       .  S
C123        C226   1.486       .  S
H124        O125   0.965       .  S
O125       Eu146   2.347       .  S
O125       Eu144   2.354       .  S
H126        O127   0.965       .  S
O127       Eu145   2.361       .  S
O127       Eu147   2.359       .  S
O128        C151   1.294       .  A
O128       Eu144   2.468       .  S
O129        C152   1.290       .  A
O129       Eu145   2.456       .  S
O130        C153   1.291       .  A
O130       Eu146   2.462       .  S
O131        C154   1.293       .  A
O131       Eu147   2.464       .  S
O132        C155   1.293       .  A
O132       Eu147   2.466       .  S
O133        C156   1.290       .  A
O133       Eu146   2.452       .  S
O134        C157   1.289       .  A
O134       Eu148   2.448   1_565  S
O135        C158   1.289       .  A
O135       Eu148   2.441       .  S
O136        C157   1.291       .  A
O136       Eu146   2.451       .  S
O137        C158   1.293       .  A
O137       Eu147   2.466       .  S
O138        C153   1.292       .  A
O138       Eu144   2.462       .  S
O139        C156   1.294       .  A
O139       Eu145   2.470   1_565  S
O140        C155   1.291       .  A
O140       Eu145   2.462       .  S
O141        C154   1.291       .  A
O141       Eu144   2.460   1_545  S
O142        C151   1.290   1_545  A
O142       Eu148   2.459       .  S
O143        C152   1.293       .  A
O143       Eu148   2.466       .  S
Eu144       O162   2.351   1_565  S
Eu144       O150   2.348       .  S
Eu145       O149   2.348       .  S
Eu145       O160   2.351   1_545  S
Eu146       O160   2.350       .  S
Eu146       O150   2.351       .  S
Eu147       O149   2.351       .  S
Eu147       O162   2.361       .  S
Eu148       O149   2.348       .  S
Eu148       O160   2.346   1_545  S
Eu148       O162   2.358       .  S
Eu148       O150   2.351   1_545  S
C151        C634   1.500       .  S
C152        C605   1.491       .  S
C153        C394   1.480       .  S
C154        C370   1.489       .  S
C155        C322   1.486       .  S
C156        C346   1.493       .  S
C157        C269   1.482       .  S
C158        C298   1.479       .  S
H159        O160   0.965       .  S
H161        O162   0.965       .  S
O163        C174   1.291       .  A
O163       Eu199   2.458       .  S
O164        C175   1.291       .  A
O164       Eu198   2.455       .  S
O165        C176   1.294       .  A
O165       Eu171   2.470   1_554  S
O166        C177   1.293       .  A
O166       Eu171   2.465       .  S
O167        C177   1.293       .  A
O167       Eu201   2.469       .  S
O168        C176   1.291       .  A
O168       Eu200   2.455       .  S
O169        C175   1.294       .  A
O169       Eu171   2.476       .  S
O170        C174   1.292       .  A
O170       Eu171   2.462       .  S
Eu171       O181   2.358       .  S
Eu171       O173   2.352   1_556  S
Eu171       O172   2.356       .  S
Eu171       O179   2.353   1_556  S
O172       Eu201   2.359       .  S
O172       Eu198   2.356       .  S
O173       Eu199   2.347   1_554  S
O173       Eu200   2.345       .  S
C174        C581   1.487       .  S
C175        C562   1.490       .  S
C176        C442   1.486       .  S
C177        C466   1.488       .  S
H178        O179   0.965       .  S
O179       Eu200   2.358       .  S
O179       Eu198   2.354   1_554  S
H180        O181   0.965       .  S
O181       Eu199   2.351       .  S
O181       Eu201   2.356       .  S
O182        C205   1.291       .  A
O182       Eu198   2.452   1_554  S
O183        C206   1.291       .  A
O183       Eu199   2.456   1_554  S
O184        C207   1.288       .  A
O184       Eu200   2.444       .  S
O185        C208   1.291       .  A
O185       Eu201   2.458       .  S
O186        C209   1.292       .  A
O186       Eu201   2.459       .  S
O187        C210   1.290       .  A
O187       Eu200   2.455       .  S
O188        C211   1.292       .  A
O188       Eu202   2.461       .  S
O189        C212   1.291       .  A
O189       Eu202   2.460   1_556  S
O190        C211   1.291       .  A
O190       Eu200   2.460       .  S
O191        C212   1.293       .  A
O191       Eu201   2.467       .  S
O192        C207   1.293       .  A
O192       Eu198   2.466   1_554  S
O193        C210   1.290       .  A
O193       Eu199   2.450   1_554  S
O194        C209   1.290       .  A
O194       Eu199   2.454       .  S
O195        C208   1.292       .  A
O195       Eu198   2.461       .  S
O196        C205   1.291       .  A
O196       Eu202   2.458       .  S
O197        C206   1.292       .  A
O197       Eu202   2.465       .  S
Eu198       O216   2.355       .  S
Eu198       O204   2.352   1_556  S
Eu199       O203   2.351       .  S
Eu199       O214   2.350   1_556  S
Eu200       O214   2.351       .  S
Eu200       O204   2.351       .  S
Eu201       O203   2.353       .  S
Eu201       O216   2.355       .  S
Eu202       O203   2.354   1_554  S
Eu202       O214   2.351       .  S
Eu202       O216   2.355   1_554  S
Eu202       O204   2.352       .  S
C205        C509   1.482       .  S
C206        C538   1.480       .  S
C207        C250   1.476       .  S
C208        C274   1.481       .  S
C209        C293   1.488       .  S
C210        C221   1.479       .  S
C211        C418   1.487       .  S
C212        C490   1.488       .  S
H213        O214   0.965       .  S
H215        O216   0.965       .  S
C217        C218   1.408       .  A
C217        C222   1.398       .  A
C217        C231   1.443       .  S
C218        C223   1.482       .  S
C218        C219   1.403       .  A
C219        C220   1.401       .  A
C219        H238   1.085       .  S
C220        C221   1.414       .  A
C220        C232   1.445       .  S
C221        C222   1.405       .  A
C222        H237   1.085       .  S
C223        C224   1.400       .  A
C223        C228   1.408       .  A
C224        C225   1.400       .  A
C224        H239   1.085       .  S
C225        C226   1.418       .  A
C225        C229   1.444       .  S
C226        C227   1.407       .  A
C227        C228   1.401       .  A
C227        H240   1.085       .  S
C228        C230   1.444       .  S
C229        N233   1.157       .  T
C230        N234   1.157       .  T
C231        N236   1.157       .  T
C232        N235   1.157       .  T
C241        C242   1.407       .  A
C241        C246   1.399       .  A
C241        C255   1.443       .  S
C242        C247   1.483       .  S
C242        C243   1.401       .  A
C243        C244   1.403       .  A
C243        H262   1.085       .  S
C244        C245   1.421       .  A
C244        C256   1.445       .  S
C245        C246   1.407       .  A
C246        H261   1.084       .  S
C247        C248   1.402       .  A
C247        C252   1.410       .  A
C248        C249   1.399       .  A
C248        H263   1.085       .  S
C249        C250   1.410       .  A
C249        C253   1.444       .  S
C250        C251   1.405       .  A
C251        C252   1.402       .  A
C251        H264   1.085       .  S
C252        C254   1.444       .  S
C253        N257   1.157       .  T
C254        N258   1.157       .  T
C255        N260   1.157       .  T
C256        N259   1.158       .  T
C265        C266   1.406       .  A
C265        C270   1.396       .  A
C265        C279   1.444       .  S
C266        C271   1.478       .  S
C266        C267   1.401       .  A
C267        C268   1.400       .  A
C267        H286   1.085       .  S
C268        C269   1.417       .  A
C268        C280   1.445       .  S
C269        C270   1.406       .  A
C270        H285   1.085       .  S
C271        C272   1.400       .  A
C271        C276   1.407       .  A
C272        C273   1.399       .  A
C272        H287   1.085       .  S
C273        C274   1.416       .  A
C273        C277   1.444       .  S
C274        C275   1.406       .  A
C275        C276   1.400       .  A
C275        H288   1.085       .  S
C276        C278   1.445       .  S
C277        N281   1.157       .  T
C278        N282   1.157       .  T
C279        N284   1.157       .  T
C280        N283   1.158       .  T
C289        C290   1.411       .  A
C289        C294   1.399       .  A
C289        C303   1.445       .  S
C290        C295   1.486       .  S
C290        C291   1.402       .  A
C291        C292   1.401       .  A
C291        H310   1.085       .  S
C292        C293   1.418       .  A
C292        C304   1.445       .  S
C293        C294   1.407       .  A
C294        H309   1.085       .  S
C295        C296   1.403       .  A
C295        C300   1.412       .  A
C296        C297   1.398       .  A
C296        H311   1.085       .  S
C297        C298   1.412       .  A
C297        C301   1.443       .  S
C298        C299   1.406       .  A
C299        C300   1.400       .  A
C299        H312   1.085       .  S
C300        C302   1.445       .  S
C301        N305   1.157       .  T
C302        N306   1.157       .  T
C303        N308   1.157       .  T
C304        N307   1.157       .  T
C313        C314   1.409       .  A
C313        C318   1.407       .  A
C313        C327   1.444       .  S
C314        C319   1.488       .  S
C314        C315   1.400       .  A
C315        C316   1.403       .  A
C315        H334   1.085       .  S
C316        C317   1.418       .  A
C316        C328   1.444       .  S
C317        C318   1.410       .  A
C318        H333   1.084       .  S
C319        C320   1.402       .  A
C319        C324   1.411       .  A
C320        C321   1.402       .  A
C320        H335   1.085       .  S
C321        C322   1.413       .  A
C321        C325   1.444       .  S
C322        C323   1.407       .  A
C323        C324   1.404       .  A
C323        H336   1.085       .  S
C324        C326   1.444       .  S
C325        N329   1.157       .  T
C326        N330   1.157       .  T
C327        N332   1.157       .  T
C328        N331   1.157       .  T
C337        C338   1.411       .  A
C337        C342   1.402       .  A
C337        C351   1.444       .  S
C338        C343   1.492       .  S
C338        C339   1.404       .  A
C339        C340   1.403       .  A
C339        H358   1.085       .  S
C340        C341   1.416       .  A
C340        C352   1.445       .  S
C341        C342   1.406       .  A
C342        H357   1.085       .  S
C343        C344   1.403       .  A
C343        C348   1.411       .  A
C344        C345   1.403       .  A
C344        H359   1.085       .  S
C345        C346   1.420       .  A
C345        C349   1.445       .  S
C346        C347   1.407       .  A
C347        C348   1.403       .  A
C347        H360   1.084       .  S
C348        C350   1.443       .  S
C349        N353   1.158       .  T
C350        N354   1.157       .  T
C351        N356   1.157       .  T
C352        N355   1.157       .  T
C361        C362   1.409       .  A
C361        C366   1.399       .  A
C361        C375   1.444       .  S
C362        C367   1.482       .  S
C362        C363   1.402       .  A
C363        C364   1.400       .  A
C363        H382   1.085       .  S
C364        C365   1.415       .  A
C364        C376   1.445       .  S
C365        C366   1.405       .  A
C366        H381   1.085       .  S
C367        C368   1.401       .  A
C367        C372   1.408       .  A
C368        C369   1.401       .  A
C368        H383   1.085       .  S
C369        C370   1.419       .  A
C369        C373   1.445       .  S
C370        C371   1.408       .  A
C371        C372   1.401       .  A
C371        H384   1.084       .  S
C372        C374   1.445       .  S
C373        N377   1.157       .  T
C374        N378   1.157       .  T
C375        N380   1.157       .  T
C376        N379   1.157       .  T
C385        C386   1.409       .  A
C385        C390   1.401       .  A
C385        C399   1.443       .  S
C386        C391   1.480       .  S
C386        C387   1.400       .  A
C387        C388   1.400       .  A
C387        H406   1.085       .  S
C388        C389   1.417       .  A
C388        C400   1.444       .  S
C389        C390   1.405       .  A
C390        H405   1.085       .  S
C391        C392   1.401       .  A
C391        C396   1.409       .  A
C392        C393   1.400       .  A
C392        H407   1.085       .  S
C393        C394   1.412       .  A
C393        C397   1.443       .  S
C394        C395   1.405       .  A
C395        C396   1.402       .  A
C395        H408   1.085       .  S
C396        C398   1.444       .  S
C397        N401   1.157       .  T
C398        N402   1.157       .  T
C399        N404   1.157       .  T
C400        N403   1.157       .  T
C409        C410   1.411       .  A
C409        C414   1.402       .  A
C409        C423   1.443       .  S
C410        C415   1.490       .  S
C410        C411   1.403       .  A
C411        C412   1.402       .  A
C411        H430   1.085       .  S
C412        C413   1.418       .  A
C412        C424   1.445       .  S
C413        C414   1.407       .  A
C414        H429   1.084       .  S
C415        C416   1.404       .  A
C415        C420   1.411       .  A
C416        C417   1.404       .  A
C416        H431   1.085       .  S
C417        C418   1.416       .  A
C417        C421   1.444       .  S
C418        C419   1.406       .  A
C419        C420   1.399       .  A
C419        H432   1.085       .  S
C420        C422   1.444       .  S
C421        N425   1.157       .  T
C422        N426   1.157       .  T
C423        N428   1.157       .  T
C424        N427   1.157       .  T
C433        C434   1.410       .  A
C433        C438   1.403       .  A
C433        C447   1.444       .  S
C434        C439   1.487       .  S
C434        C435   1.402       .  A
C435        C436   1.403       .  A
C435        H454   1.085       .  S
C436        C437   1.416       .  A
C436        C448   1.444       .  S
C437        C438   1.407       .  A
C438        H453   1.085       .  S
C439        C440   1.401       .  A
C439        C444   1.411       .  A
C440        C441   1.402       .  A
C440        H455   1.085       .  S
C441        C442   1.416       .  A
C441        C445   1.444       .  S
C442        C443   1.406       .  A
C443        C444   1.403       .  A
C443        H456   1.085       .  S
C444        C446   1.443       .  S
C445        N449   1.157       .  T
C446        N450   1.157       .  T
C447        N452   1.157       .  T
C448        N451   1.157       .  T
C457        C458   1.410       .  A
C457        C462   1.402       .  A
C457        C471   1.444       .  S
C458        C463   1.484       .  S
C458        C459   1.400       .  A
C459        C460   1.400       .  A
C459        H478   1.085       .  S
C460        C461   1.417       .  A
C460        C472   1.444       .  S
C461        C462   1.406       .  A
C462        H477   1.085       .  S
C463        C464   1.401       .  A
C463        C468   1.409       .  A
C464        C465   1.402       .  A
C464        H479   1.085       .  S
C465        C466   1.416       .  A
C465        C469   1.445       .  S
C466        C467   1.407       .  A
C467        C468   1.403       .  A
C467        H480   1.084       .  S
C468        C470   1.444       .  S
C469        N473   1.157       .  T
C470        N474   1.157       .  T
C471        N476   1.157       .  T
C472        N475   1.157       .  T
C481        C482   1.409       .  A
C481        C486   1.403       .  A
C481        C495   1.444       .  S
C482        C487   1.484       .  S
C482        C483   1.400       .  A
C483        C484   1.400       .  A
C483        H502   1.085       .  S
C484        C485   1.416       .  A
C484        C496   1.444       .  S
C485        C486   1.407       .  A
C486        H501   1.085       .  S
C487        C488   1.401       .  A
C487        C492   1.409       .  A
C488        C489   1.402       .  A
C488        H503   1.085       .  S
C489        C490   1.418       .  A
C489        C493   1.444       .  S
C490        C491   1.407       .  A
C491        C492   1.400       .  A
C491        H504   1.085       .  S
C492        C494   1.444       .  S
C493        N497   1.157       .  T
C494        N498   1.157       .  T
C495        N500   1.157       .  T
C496        N499   1.157       .  T
C505        C506   1.408       .  A
C505        C510   1.400       .  A
C505        C519   1.444       .  S
C506        C511   1.480       .  S
C506        C507   1.401   1_556  A
C507        C508   1.400       .  A
C507        H526   1.085       .  S
C508        C509   1.414       .  A
C508        C520   1.444       .  S
C509        C510   1.407   1_554  A
C510        H525   1.085       .  S
C511        C512   1.397   1_556  A
C511        C516   1.409       .  A
C512        C513   1.398       .  A
C512        H527   1.085       .  S
C513        C514   1.417   1_554  A
C513        C517   1.443       .  S
C514        C515   1.408       .  A
C515        C516   1.405       .  A
C515        H528   1.084       .  S
C516        C518   1.445       .  S
C517        N521   1.157       .  T
C518        N522   1.158       .  T
C519        N524   1.157       .  T
C520        N523   1.157       .  T
C529        C530   1.409   1_556  A
C529        C534   1.399       .  A
C529        C543   1.444       .  S
C530        C535   1.479       .  S
C530        C531   1.400       .  A
C531        C532   1.400       .  A
C531        H550   1.085       .  S
C532        C533   1.416       .  A
C532        C544   1.445       .  S
C533        C534   1.406   1_554  A
C534        H549   1.085       .  S
C535        C536   1.400       .  A
C535        C540   1.409   1_554  A
C536        C537   1.399       .  A
C536        H551   1.085       .  S
C537        C538   1.415       .  A
C537        C541   1.444       .  S
C538        C539   1.406   1_554  A
C539        C540   1.402       .  A
C539        H552   1.085       .  S
C540        C542   1.444       .  S
C541        N545   1.157       .  T
C542        N546   1.157       .  T
C543        N548   1.157       .  T
C544        N547   1.157       .  T
C553        C554   1.411   1_554  A
C553        C558   1.404       .  A
C553        C567   1.444       .  S
C554        C559   1.492       .  S
C554        C555   1.402       .  A
C555        C556   1.403       .  A
C555        H574   1.085       .  S
C556        C557   1.419       .  A
C556        C568   1.445       .  S
C557        C558   1.408   1_556  A
C558        H573   1.084       .  S
C559        C560   1.404       .  A
C559        C564   1.411   1_556  A
C560        C561   1.404       .  A
C560        H575   1.085       .  S
C561        C562   1.415       .  A
C561        C565   1.444       .  S
C562        C563   1.408   1_556  A
C563        C564   1.403       .  A
C563        H576   1.085       .  S
C564        C566   1.445       .  S
C565        N569   1.157       .  T
C566        N570   1.157       .  T
C567        N572   1.157       .  T
C568        N571   1.157       .  T
C577        C578   1.409       .  A
C577        C582   1.402       .  A
C577        C591   1.443       .  S
C578        C583   1.487       .  S
C578        C579   1.403   1_554  A
C579        C580   1.404       .  A
C579        H598   1.085       .  S
C580        C581   1.416       .  A
C580        C592   1.445       .  S
C581        C582   1.406   1_556  A
C582        H597   1.085       .  S
C583        C584   1.403   1_554  A
C583        C588   1.409       .  A
C584        C585   1.404       .  A
C584        H599   1.085       .  S
C585        C586   1.415   1_556  A
C585        C589   1.444       .  S
C586        C587   1.406       .  A
C587        C588   1.404       .  A
C587        H600   1.085       .  S
C588        C590   1.444       .  S
C589        N593   1.157       .  T
C590        N594   1.157       .  T
C591        N596   1.157       .  T
C592        N595   1.157       .  T
C601        C602   1.410       .  A
C601        C606   1.401       .  A
C601        C615   1.443       .  S
C602        C607   1.489       .  S
C602        C603   1.403   1_545  A
C603        C604   1.404       .  A
C603        H622   1.085       .  S
C604        C605   1.418   1_565  A
C604        C616   1.445       .  S
C605        C606   1.407       .  A
C606        H621   1.085       .  S
C607        C608   1.403   1_545  A
C607        C612   1.411       .  A
C608        C609   1.401       .  A
C608        H623   1.085       .  S
C609        C610   1.416   1_565  A
C609        C613   1.445       .  S
C610        C611   1.406       .  A
C611        C612   1.403       .  A
C611        H624   1.085       .  S
C612        C614   1.443       .  S
C613        N617   1.157       .  T
C614        N618   1.157       .  T
C615        N620   1.157       .  T
C616        N619   1.158       .  T
C625        C626   1.416       .  A
C625        C630   1.402       .  A
C625        C639   1.444       .  S
C626        C631   1.496       .  S
C626        C627   1.405   1_545  A
C627        C628   1.401       .  A
C627        H646   1.085       .  S
C628        C629   1.413   1_565  A
C628        C640   1.444       .  S
C629        C630   1.404       .  A
C630        H645   1.085       .  S
C631        C632   1.403   1_545  A
C631        C636   1.413       .  A
C632        C633   1.403       .  A
C632        H647   1.085       .  S
C633        C634   1.422       .  A
C633        C637   1.444       .  S
C634        C635   1.409   1_565  A
C635        C636   1.401       .  A
C635        H648   1.084       .  S
C636        C638   1.445       .  S
C637        N641   1.157       .  T
C638        N642   1.157       .  T
C639        N644   1.157       .  T
C640        N643   1.157       .  T
C649        C650   1.414   1_545  A
C649        C654   1.400       .  A
C649        C663   1.445       .  S
C650        C655   1.488       .  S
C650        C651   1.403       .  A
C651        C652   1.399       .  A
C651        H670   1.085       .  S
C652        C653   1.415       .  A
C652        C664   1.445       .  S
C653        C654   1.403   1_565  A
C654        H669   1.085       .  S
C655        C656   1.402       .  A
C655        C660   1.412   1_565  A
C656        C657   1.398       .  A
C656        H671   1.085       .  S
C657        C658   1.417       .  A
C657        C661   1.444       .  S
C658        C659   1.409   1_565  A
C659        C660   1.401       .  A
C659        H672   1.084       .  S
C660        C662   1.445       .  S
C661        N665   1.157       .  T
C662        N666   1.158       .  T
C663        N668   1.157       .  T
C664        N667   1.157       .  T
C673        C674   1.409       .  A
C673        C678   1.401       .  A
C673        C687   1.445       .  S
C674        C679   1.480       .  S
C674        C675   1.400   1_545  A
C675        C676   1.399       .  A
C675        H694   1.085       .  S
C676        C677   1.415   1_565  A
C676        C688   1.444       .  S
C677        C678   1.408       .  A
C678        H693   1.085       .  S
C679        C680   1.402   1_545  A
C679        C684   1.408       .  A
C680        C681   1.400       .  A
C680        H695   1.085       .  S
C681        C682   1.416       .  A
C681        C685   1.445       .  S
C682        C683   1.405   1_565  A
C683        C684   1.397       .  A
C683        H696   1.085       .  S
C684        C686   1.443       .  S
C685        N689   1.157       .  T
C686        N690   1.157       .  T
C687        N692   1.157       .  T
C688        N691   1.157       .  T
C697        C698   1.407   1_455  A
C697        C702   1.400       .  A
C697        C711   1.444       .  S
C698        C703   1.480       .  S
C698        C699   1.400       .  A
C699        C700   1.399       .  A
C699        H718   1.085       .  S
C700        C701   1.418       .  A
C700        C712   1.444       .  S
C701        C702   1.408   1_655  A
C702        H717   1.084       .  S
C703        C704   1.402       .  A
C703        C708   1.408   1_655  A
C704        C705   1.402       .  A
C704        H719   1.085       .  S
C705        C706   1.414       .  A
C705        C709   1.444       .  S
C706        C707   1.404   1_655  A
C707        C708   1.399       .  A
C707        H720   1.085       .  S
C708        C710   1.444       .  S
C709        N713   1.157       .  T
C710        N714   1.157       .  T
C711        N716   1.157       .  T
C712        N715   1.157       .  T
C721        C722   1.411       .  A
C721        C726   1.403       .  A
C721        C735   1.444       .  S
C722        C727   1.486       .  S
C722        C723   1.402   1_455  A
C723        C724   1.399       .  A
C723        H742   1.085       .  S
C724        C725   1.413   1_655  A
C724        C736   1.443       .  S
C725        C726   1.406       .  A
C726        H741   1.085       .  S
C727        C728   1.402   1_455  A
C727        C732   1.409       .  A
C728        C729   1.404       .  A
C728        H743   1.085       .  S
C729        C730   1.419       .  A
C729        C733   1.445       .  S
C730        C731   1.408   1_655  A
C731        C732   1.401       .  A
C731        H744   1.084       .  S
C732        C734   1.444       .  S
C733        N737   1.158       .  T
C734        N738   1.157       .  T
C735        N740   1.157       .  T
C736        N739   1.157       .  T
C745        C746   1.409   1_455  A
C745        C750   1.398       .  A
C745        C759   1.445       .  S
C746        C751   1.481       .  S
C746        C747   1.401       .  A
C747        C748   1.400       .  A
C747        H766   1.085       .  S
C748        C749   1.414       .  A
C748        C760   1.444       .  S
C749        C750   1.407   1_655  A
C750        H765   1.085       .  S
C751        C752   1.400       .  A
C751        C756   1.410   1_655  A
C752        C753   1.398       .  A
C752        H767   1.085       .  S
C753        C754   1.415       .  A
C753        C757   1.444       .  S
C754        C755   1.406   1_655  A
C755        C756   1.400       .  A
C755        H768   1.085       .  S
C756        C758   1.445       .  S
C757        N761   1.157       .  T
C758        N762   1.157       .  T
C759        N764   1.157       .  T
C760        N763   1.157       .  T
C769        C770   1.408   1_455  A
C769        C774   1.398       .  A
C769        C783   1.443       .  S
C770        C775   1.478       .  S
C770        C771   1.402       .  A
C771        C772   1.402       .  A
C771        H790   1.085       .  S
C772        C773   1.414       .  A
C772        C784   1.444       .  S
C773        C774   1.403   1_655  A
C774        H789   1.085       .  S
C775        C776   1.401       .  A
C775        C780   1.407   1_655  A
C776        C777   1.401       .  A
C776        H791   1.085       .  S
C777        C778   1.416       .  A
C777        C781   1.445       .  S
C778        C779   1.404   1_655  A
C779        C780   1.398       .  A
C779        H792   1.085       .  S
C780        C782   1.444       .  S
C781        N785   1.157       .  T
C782        N786   1.157       .  T
C783        N788   1.157       .  T
C784        N787   1.157       .  T
