geometry optimzed in LAMMPS
_audit_creation_date              2020-11-30 
_audit_creation_method            'lammps2cif' 
_symmetry_space_group_name_H-M    'P1' 
_symmetry_Int_Tables_number       1 
_symmetry_cell_setting            triclinic 
loop_ 
_symmetry_equiv_pos_as_xyz 
  x,y,z 
_cell_length_a                    36.81577091 
_cell_length_b                    40.80060733779641 
_cell_length_c                    36.82775481420773 
_cell_angle_alpha                 89.990868878706 
_cell_angle_beta                  88.3047639567426 
_cell_angle_gamma                 91.3578274590359 
loop_ 
_atom_site_label 
_atom_site_type_symbol 
_atom_site_fract_x 
_atom_site_fract_y 
_atom_site_fract_z 
_atom_site_charge 
C1          C  0.60962621  0.64443632  0.59431078     0.86200
C2          C  0.64996312  0.63621019  0.59182798    -0.54100
C3          C  0.65826131  0.60651758  0.60603000     0.09100
C4          C  0.62483994  0.58735260  0.62223944     0.20100
C5          C  0.58946053  0.61506691  0.57748009    -0.54800
C6          C  0.59735615  0.58520389  0.59131801     0.09200
C7          C  0.59868956  0.64049887  0.63520042    -0.54300
C8          C  0.60706820  0.61079616  0.65032520     0.09800
H9          H  0.67044047  0.65272001  0.57961940     0.14300
H10         H  0.63193734  0.56327537  0.63360900     0.00000
H11         H  0.56834982  0.61761354  0.55786397     0.14600
H12         H  0.58457555  0.65921239  0.65062936     0.14400
C13         C  0.94776575  0.14253092  0.59510920     0.86200
C14         C  0.95538237  0.13491094  0.63510323    -0.54100
C15         C  0.94752722  0.10352672  0.64608733     0.09100
C16         C  0.93376876  0.08151066  0.61483225     0.20100
C17         C  0.97154749  0.11698698  0.57509739    -0.54800
C18         C  0.96365744  0.08489715  0.58434983     0.09200
C19         C  0.90857221  0.13072158  0.58929403    -0.54300
C20         C  0.90070198  0.09923326  0.59986588     0.09800
H21         H  0.96732328  0.15276797  0.65330418     0.14300
H22         H  0.92743992  0.05587980  0.62329736     0.00000
H23         H  0.99365518  0.12336315  0.55615042     0.14600
H24         H  0.88840663  0.14638986  0.57779607     0.14400
C25         C  0.10657119  0.65271043  0.95529579     0.86200
C26         C  0.09069136  0.64663214  0.91714707    -0.54100
C27         C  0.09245634  0.61484580  0.90504197     0.09100
C28         C  0.10842374  0.59173445  0.93313285     0.20100
C29         C  0.08370935  0.62869292  0.97915174    -0.54800
C30         C  0.08508785  0.59678131  0.96860423     0.09200
C31         C  0.14465932  0.63811239  0.95334359    -0.54300
C32         C  0.14667276  0.60656501  0.94049402     0.09800
H33         H  0.07798158  0.66529192  0.90129489     0.14300
H34         H  0.10804051  0.56661104  0.92286526     0.00000
H35         H  0.06726389  0.63626865  0.00249035     0.14600
H36         H  0.16831339  0.65208053  0.96198348     0.14400
C37         C  0.45066743  0.33822738  0.46176233     0.86200
C38         C  0.45866254  0.34401909  0.42121507    -0.54100
C39         C  0.45332716  0.37489438  0.40955700     0.09100
C40         C  0.43711763  0.39764064  0.43959350     0.20100
C41         C  0.47138365  0.36563188  0.48159898    -0.54800
C42         C  0.46405695  0.39677071  0.47086273     0.09200
C43         C  0.41001884  0.34748523  0.46515416    -0.54300
C44         C  0.40226132  0.37899804  0.45415200     0.09800
H45         H  0.46557425  0.32486214  0.40203295     0.14300
H46         H  0.43260455  0.42302547  0.43120209     0.00000
H47         H  0.49010037  0.36066859  0.50307474     0.14600
H48         H  0.38912029  0.32991044  0.47419770     0.14400
C49         C  0.60403415  0.85019956  0.07854560     0.86200
C50         C  0.59111124  0.85800643  0.11770382    -0.54100
C51         C  0.59877204  0.88916259  0.12971431     0.09100
C52         C  0.61743913  0.91064390  0.09937862     0.20100
C53         C  0.58664461  0.87608499  0.05520679    -0.54800
C54         C  0.59293569  0.90742539  0.06614196     0.09200
C55         C  0.64519002  0.86024662  0.07909963    -0.54300
C56         C  0.65221409  0.89234609  0.08857213     0.09800
H57         H  0.57797321  0.83957653  0.13515940     0.14300
H58         H  0.62362714  0.93635088  0.10670050     0.00000
H59         H  0.56963450  0.87005262  0.03242073     0.14600
H60         H  0.66708327  0.84339145  0.07459714     0.14400
C61         C  0.92286590  0.34899941  0.10362083     0.86200
C62         C  0.88410561  0.36135092  0.10223510    -0.54100
C63         C  0.87973008  0.39263592  0.11407516     0.09100
C64         C  0.91540470  0.40963661  0.12605763     0.20100
C65         C  0.94668115  0.37488719  0.08202776    -0.54800
C66         C  0.94285942  0.40710614  0.09333569     0.09200
C67         C  0.93481144  0.35536457  0.14260300    -0.54300
C68         C  0.93068270  0.38653232  0.15479267     0.09800
H69         H  0.86155854  0.34618035  0.09298013     0.14300
H70         H  0.91089671  0.43492227  0.13576902     0.00000
H71         H  0.96600508  0.36798719  0.06074258     0.14600
H72         H  0.94899850  0.33761255  0.15845323     0.14400
C73         C  0.43784128  0.14930728  0.94850935     0.86200
C74         C  0.40001162  0.13322082  0.95065695    -0.54100
C75         C  0.39759171  0.10275396  0.93568270     0.09100
C76         C  0.43391000  0.09149363  0.91779119     0.20100
C77         C  0.46294440  0.12347020  0.96455145    -0.54800
C78         C  0.46115685  0.09297332  0.94892856     0.09200
C79         C  0.44918105  0.14929656  0.90778725    -0.54300
C80         C  0.44654658  0.11931305  0.89152023     0.09800
H81         H  0.37729207  0.14425860  0.96521714     0.14300
H82         H  0.43236113  0.06759452  0.90368931     0.00000
H83         H  0.48111443  0.12879035  0.98619165     0.14600
H84         H  0.45864703  0.17108107  0.89307508     0.14400
C85         C  0.11103436  0.84391871  0.44320638     0.86200
C86         C  0.15120161  0.85374561  0.44466199    -0.54100
C87         C  0.15955970  0.88530228  0.43473023     0.09100
C88         C  0.12603963  0.90454202  0.42294301     0.20100
C89         C  0.09039260  0.87007693  0.46490605    -0.54800
C90         C  0.09814844  0.90163074  0.45513516     0.09200
C91         C  0.10066308  0.85169559  0.40369000    -0.54300
C92         C  0.10906474  0.88329886  0.39256646     0.09800
H93         H  0.17165249  0.83667972  0.45281873     0.14300
H94         H  0.13250684  0.93025446  0.41484922     0.00000
H95         H  0.06893304  0.86424728  0.48478136     0.14600
H96         H  0.08783291  0.83387927  0.38600602     0.14400
Zr97       Zr  0.96480405  0.03401083  0.00096544     2.17500
O98         O  0.91200212  0.04540596  0.96502523    -0.51600
O99         O  0.95851819  0.09199377  0.01804352    -0.74800
O100        O  0.90759637  0.01903649  0.03504612    -0.81600
O101        O  0.02484272  0.03797500  0.91273308    -0.83400
O102        O  0.92271476  0.99531803  0.08766871    -0.79000
O103        O  0.96709052  0.04442217  0.93486617    -0.90600
O104        O  0.00641029  0.10742278  0.05205299    -0.76600
O105        O  0.98597098  0.03900519  0.06143359    -0.86100
O106        O  0.02503245  0.05707599  0.99605926    -0.85800
O107        O  0.96442487  0.97882747  0.02477638    -0.72500
O108        O  0.00059517  0.99637608  0.96535902    -0.84700
Zr109      Zr  0.08165584  0.96961923  0.04639410     2.26400
Zr110      Zr  0.98687150  0.98431964  0.08508320     2.06300
Zr111      Zr  0.06096154  0.01894406  0.96181533     2.10000
Zr112      Zr  0.04600853  0.06160362  0.05638031     1.78800
O113        O  0.08010672  0.98591848  0.90994109    -0.93500
O114        O  0.03435291  0.08006743  0.11846105    -0.41300
O115        O  0.08212780  0.02424328  0.02209397    -0.77900
O116        O  0.04703960  0.00806452  0.08248289    -0.96600
O117        O  0.02185088  0.94641158  0.05026284    -0.89900
O118        O  0.06166547  0.96431885  0.98558362    -0.92800
C119        C  0.97663949  0.11324425  0.03651073     1.01000
C120        C  0.99139664  0.04483413  0.90886199     1.13900
C121        C  0.89899073  0.00573828  0.06607223     1.04700
O122        O  0.96981060  0.00954676  0.14283671    -0.94900
O123        O  0.02187571  0.96042357  0.13294966    -0.90600
O124        O  0.07980413  0.95545367  0.11080691    -0.83800
C125        C  0.05530989  0.95294125  0.13627518     1.11400
O126        O  0.94936556  0.93642141  0.95030249    -0.96900
Zr127      Zr  0.00116319  0.94217084  0.98985708     1.88900
O128        O  0.08312560  0.91021436  0.03636122    -0.73500
O129        O  0.95826421  0.93114834  0.09894212    -0.52800
O130        O  0.95578257  0.90302571  0.01427440    -0.97500
O131        O  0.02022311  0.92102635  0.93055346    -0.54700
O132        O  0.03463309  0.89375108  0.00402177    -0.74000
C133        C  0.06340223  0.88786333  0.02144297     0.98300
O134        O  0.14206435  0.95824395  0.06811354    -0.62900
O135        O  0.09011163  0.06830366  0.93598328    -0.57700
O136        O  0.13913478  0.98872212  0.01703295    -0.94400
O137        O  0.12623414  0.01721237  0.96606427    -0.92800
O138        O  0.08278129  0.10498955  0.02735676    -0.93100
O139        O  0.10218303  0.07183316  0.08827291    -0.91900
C140        C  0.14848944  0.00583451  0.98873829     1.17100
H141        H  0.02510939  0.07824861  0.98415458     0.33100
H142        H  0.05653440  0.01113155  0.10645582     0.43900
H143        H  0.07781309  0.95055372  0.97148441     0.37500
H144        H  0.94036108  0.96884387  0.02518562     0.33900
H145        H  0.03767358  0.10421259  0.11744802     0.25700
H146        H  0.95093122  0.93235665  0.12496809     0.31700
H147        H  0.95583660  0.88452274  0.99688832     0.37600
H148        H  0.08497383  0.12224190  0.04612418     0.32000
H149        H  0.09490580  0.06303364  0.91006460     0.30900
H150        H  0.09625465  0.00071571  0.89510782     0.32600
H151        H  0.04503108  0.91280497  0.93357431     0.31600
H152        H  0.11424740  0.05039551  0.08831802     0.35600
H153        H  0.14564874  0.97307018  0.08905742     0.28300
H154        H  0.89995804  0.06384836  0.97753970     0.32500
H155        H  0.95072595  0.91423867  0.93953389     0.35400
H156        H  0.07097096  0.08492861  0.93571747     0.28000
H157        H  0.14017966  0.93596177  0.07876176     0.40900
H158        H  0.99248318  0.02022542  0.15122656     0.30900
H159        H  0.00788089  0.07646041  0.12270988     0.38500
H160        H  0.02372120  0.94077991  0.91515075     0.30400
H161        H  0.93513234  0.93082679  0.08589289     0.30400
H162        H  0.89511679  0.02630554  0.96818641     0.30700
Zr163      Zr  0.55429914  0.03905962  0.55820750     2.17500
O164        O  0.59124637  0.08383310  0.58273829    -0.51600
O165        O  0.53078788  0.04583076  0.62067752    -0.74800
O166        O  0.52727527  0.09172792  0.54410308    -0.81600
O167        O  0.63903894  0.98457669  0.55993854    -0.83400
O168        O  0.47814707  0.08202477  0.50974039    -0.79000
O169        O  0.61965615  0.03685153  0.56632089    -0.90600
O170        O  0.48622321  0.00766625  0.63148914    -0.76600
O171        O  0.49221514  0.02190138  0.55984827    -0.86100
O172        O  0.55304611  0.98480750  0.58259372    -0.85800
O173        O  0.53635429  0.04197660  0.49573787    -0.72500
O174        O  0.58969023  0.00656925  0.51659048    -0.84700
Zr175      Zr  0.50577226  0.93710912  0.48017166     2.26400
Zr176      Zr  0.47392673  0.02360861  0.49817698     2.06300
Zr177      Zr  0.58738026  0.95199431  0.54022788     2.10000
Zr178      Zr  0.49081789  0.96756157  0.58325978     1.78800
O179        O  0.64304380  0.93338663  0.51030466    -0.93500
O180        O  0.42749305  0.97097448  0.60390440    -0.41300
O181        O  0.52511428  0.93453145  0.54181932    -0.77900
O182        O  0.46980231  0.96906511  0.52236006    -0.96600
O183        O  0.50830998  0.99115848  0.45600627    -0.89900
O184        O  0.56841782  0.95338080  0.47861470    -0.92800
C185        C  0.50462435  0.03327289  0.64038366     1.01000
C186        C  0.64436939  0.01516950  0.56641540     1.13900
C187        C  0.49980265  0.10141235  0.52655282     1.04700
O188        O  0.41899147  0.03359885  0.53454793    -0.94900
O189        O  0.42741039  0.99494328  0.46447614    -0.90600
O190        O  0.44266980  0.94174228  0.46200510    -0.83800
C191        C  0.42004188  0.96481052  0.45751469     1.11400
O192        O  0.60561744  0.05844539  0.44344366    -0.96900
Zr193      Zr  0.57052126  0.00790958  0.45520193     1.88900
O194        O  0.52729515  0.93121453  0.41671017    -0.73500
O195        O  0.45505172  0.05422442  0.44541014    -0.52800
O196        O  0.54466439  0.03980534  0.40668773    -0.97500
O197        O  0.63474386  0.99928220  0.44139269    -0.54700
O198        O  0.56914779  0.97158268  0.40353822    -0.74000
C199        C  0.55073797  0.94579433  0.39525602     0.98300
O200        O  0.47768393  0.88329833  0.46983548    -0.62900
O201        O  0.60182351  0.92582718  0.59734253    -0.57700
O202        O  0.52950155  0.88446929  0.49738201    -0.94400
O203        O  0.57976179  0.89314478  0.53078819    -0.92800
O204        O  0.51843956  0.93712359  0.63179127    -0.93100
O205        O  0.45594004  0.91635740  0.59039074    -0.91900
C206        C  0.55650607  0.87432689  0.51512195     1.17100
H207        H  0.56308301  0.98463625  0.60667028     0.33100
H208        H  0.44468373  0.96140442  0.52401473     0.43900
H209        H  0.58280122  0.93872086  0.46392735     0.37500
H210        H  0.53931210  0.06380832  0.48580577     0.33900
H211        H  0.42781033  0.96848101  0.63065099     0.25700
H212        H  0.43548834  0.06853675  0.45463740     0.31700
H213        H  0.52746438  0.02463071  0.39460247     0.37600
H214        H  0.49775172  0.92895513  0.64730869     0.32000
H215        H  0.62429711  0.91370703  0.59180154     0.30900
H216        H  0.65629055  0.92226157  0.52960951     0.32600
H217        H  0.63671571  0.99788874  0.41456890     0.31600
H218        H  0.45011546  0.90974310  0.56531463     0.35600
H219        H  0.45229333  0.88405884  0.47937720     0.28300
H220        H  0.57403462  0.09862895  0.59527083     0.32500
H221        H  0.61269764  0.05788724  0.41730067     0.35400
H222        H  0.60968184  0.94390563  0.61342508     0.28000
H223        H  0.47604771  0.88126377  0.44317128     0.40900
H224        H  0.42701838  0.04721411  0.55520018     0.30900
H225        H  0.42117349  0.99413422  0.60000111     0.38500
H226        H  0.63912661  0.97674239  0.44987798     0.30400
H227        H  0.47573307  0.06937045  0.43923775     0.30400
H228        H  0.60084435  0.09643012  0.56145288     0.30700
Zr229      Zr  0.53508426  0.44391165  0.06224675     2.17500
O230        O  0.56080360  0.38994936  0.07077555    -0.51600
O231        O  0.51863609  0.43671813  0.12667653    -0.74800
O232        O  0.59916632  0.44658296  0.07890468    -0.81600
O233        O  0.45535659  0.40407191  0.01081569    -0.83400
O234        O  0.62097835  0.49896631  0.07344547    -0.79000
O235        O  0.50628257  0.39305540  0.04191161    -0.90600
O236        O  0.48484419  0.47932146  0.14588091    -0.76600
O237        O  0.53664082  0.49670611  0.08956269    -0.86100
O238        O  0.47332641  0.46039245  0.06715987    -0.85800
O239        O  0.57175645  0.47688427  0.02045892    -0.72500
O240        O  0.51256495  0.44495104  0.00158271    -0.84700
Zr241      Zr  0.48963431  0.55028756  0.99329267     2.26400
Zr242      Zr  0.57251290  0.53019722  0.04793384     2.06300
Zr243      Zr  0.45134173  0.46315299  0.00663222     2.10000
Zr244      Zr  0.47503394  0.51340448  0.09368638     1.78800
O245        O  0.42987384  0.43874086  0.95063359    -0.93500
O246        O  0.49408604  0.55421847  0.13793572    -0.41300
O247        O  0.45242011  0.51635043  0.03359164    -0.77900
O248        O  0.51106131  0.54858128  0.05462317    -0.96600
O249        O  0.55069324  0.53249504  0.98739525    -0.89900
O250        O  0.48679794  0.49749328  0.96558317    -0.92800
C251        C  0.50090315  0.45237395  0.15145002     1.01000
C252        C  0.47805127  0.38436882  0.02428321     1.13900
C253        C  0.62462285  0.46859029  0.08115376     1.04700
O254        O  0.59489788  0.55431596  0.10363275    -0.94900
O255        O  0.57226901  0.58931029  0.04085362    -0.90600
O256        O  0.52049187  0.60100213  0.01182584    -0.83800
C257        C  0.54970828  0.60949555  0.02800715     1.11400
O258        O  0.57847524  0.42871938  0.94522496    -0.96900
Zr259      Zr  0.54773768  0.47932884  0.96093035     1.88900
O260        O  0.51287627  0.56176196  0.93130811    -0.73500
O261        O  0.62690782  0.54519718  0.01186691    -0.52800
O262        O  0.61180396  0.48815221  0.94431189    -0.97500
O263        O  0.52014353  0.45038591  0.91036126    -0.54700
O264        O  0.54969120  0.52036186  0.91407085    -0.74000
C265        C  0.53508701  0.54800168  0.90876405     0.98300
O266        O  0.45398711  0.59892777  0.98293343    -0.62900
O267        O  0.39703906  0.44633382  0.04188087    -0.57700
O268        O  0.42519731  0.54849609  0.97839601    -0.94400
O269        O  0.40307356  0.49602460  0.98305496    -0.92800
O270        O  0.41613659  0.49218683  0.11600264    -0.93100
O271        O  0.43177014  0.55704373  0.10318345    -0.91900
C272        C  0.39962680  0.52660760  0.97611023     1.17100
H273        H  0.45888238  0.44507398  0.08182417     0.33100
H274        H  0.51009415  0.56959231  0.06652404     0.43900
H275        H  0.47578684  0.49862679  0.94216036     0.37500
H276        H  0.59596218  0.46865205  0.01709382     0.33900
H277        H  0.47844300  0.54977201  0.15979067     0.25700
H278        H  0.64288310  0.55677262  0.02909434     0.31700
H279        H  0.61301687  0.48728811  0.91743013     0.37600
H280        H  0.41453248  0.49894979  0.14181568     0.32000
H281        H  0.38536161  0.46709697  0.04891945     0.30900
H282        H  0.40674282  0.42727950  0.95774232     0.32600
H283        H  0.50990965  0.46759791  0.89500690     0.31600
H284        H  0.43823192  0.57331861  0.08396675     0.35600
H285        H  0.45199766  0.61021235  0.00669597     0.28300
H286        H  0.57101951  0.39018352  0.09535161     0.32500
H287        H  0.58584665  0.43067836  0.91921738     0.35400
H288        H  0.38066431  0.43631125  0.02392069     0.28000
H289        H  0.46954146  0.61360480  0.96734365     0.40900
H290        H  0.58371256  0.54068095  0.12339370     0.30900
H291        H  0.51864641  0.54762939  0.14480230     0.38500
H292        H  0.49868532  0.43863587  0.92130188     0.30400
H293        H  0.63905703  0.52421675  0.00683939     0.30400
H294        H  0.58209003  0.38899790  0.05377795     0.30700
Zr295      Zr  0.00729997  0.54861348  0.56212106     2.17500
O296        O  0.98873606  0.60485328  0.57214443    -0.51600
O297        O  0.02692203  0.55630940  0.62460728    -0.74800
O298        O  0.94299206  0.54889137  0.58233073    -0.81600
O299        O  0.08531256  0.58782758  0.50377042    -0.83400
O300        O  0.92110396  0.49696718  0.57936857    -0.79000
O301        O  0.03568707  0.59907812  0.53943505    -0.90600
O302        O  0.06044388  0.51308830  0.64052443    -0.76600
O303        O  0.00443492  0.49584107  0.58960122    -0.86100
O304        O  0.06859714  0.53077599  0.56215380    -0.85800
O305        O  0.96901485  0.51631243  0.52305627    -0.72500
O306        O  0.02824962  0.54727929  0.49976386    -0.84700
Zr307      Zr  0.04933047  0.44165263  0.48926205     2.26400
Zr308      Zr  0.96735494  0.46305515  0.55059988     2.06300
Zr309      Zr  0.08911384  0.52836915  0.49968217     2.10000
Zr310      Zr  0.06543646  0.47758103  0.58868222     1.78800
O311        O  0.10505041  0.54675638  0.43818519    -0.93500
O312        O  0.04342810  0.44383207  0.63971181    -0.41300
O313        O  0.08701198  0.47517834  0.52704751    -0.77900
O314        O  0.02829708  0.44371703  0.55196397    -0.96600
O315        O  0.98843867  0.46026889  0.48858651    -0.89900
O316        O  0.05272736  0.49440658  0.46107273    -0.92800
C317        C  0.04559787  0.54047746  0.64742895     1.01000
C318        C  0.06313342  0.60771960  0.51914949     1.13900
C319        C  0.91709516  0.52739126  0.58692378     1.04700
O320        O  0.94556656  0.43681042  0.60676602    -0.94900
O321        O  0.96791918  0.40373595  0.54484439    -0.90600
O322        O  0.01773666  0.39135670  0.50982353    -0.83800
C323        C  0.98954343  0.38329086  0.52957609     1.11400
O324        O  0.95014536  0.55815684  0.45373546    -0.96900
Zr325      Zr  0.99187233  0.51335350  0.46172948     1.88900
O326        O  0.03193938  0.43502174  0.42575249    -0.73500
O327        O  0.91236205  0.44855662  0.51853260    -0.52800
O328        O  0.93193127  0.49621459  0.44141223    -0.97500
O329        O  0.01678434  0.55235242  0.41684844    -0.54700
O330        O  0.99741892  0.47782002  0.40993319    -0.74000
C331        C  0.01296397  0.45073993  0.40304754     0.98300
O332        O  0.07105063  0.38746312  0.47264387    -0.62900
O333        O  0.14632953  0.55088888  0.52145068    -0.57700
O334        O  0.11605746  0.44112043  0.48059528    -0.94400
O335        O  0.13927779  0.49310490  0.48286236    -0.92800
O336        O  0.12903800  0.49007214  0.60014464    -0.93100
O337        O  0.09824016  0.42710673  0.59715486    -0.91900
C338        C  0.14285516  0.46206597  0.47875353     1.17100
H339        H  0.08378804  0.54558940  0.57580319     0.33100
H340        H  0.02931094  0.42281500  0.56397662     0.43900
H341        H  0.06346460  0.49336045  0.43687427     0.37500
H342        H  0.94500514  0.52503665  0.52134747     0.33900
H343        H  0.06163683  0.44725188  0.65869355     0.25700
H344        H  0.89713176  0.43589013  0.53642501     0.31700
H345        H  0.93030615  0.47228036  0.44583594     0.37600
H346        H  0.13380980  0.47881691  0.62328161     0.32000
H347        H  0.15432056  0.56760017  0.50322617     0.30900
H348        H  0.13195425  0.54707125  0.43687492     0.32600
H349        H  0.03855556  0.54182900  0.40624227     0.31600
H350        H  0.10487798  0.41987650  0.57221566     0.35600
H351        H  0.08183839  0.38985158  0.44784146     0.28300
H352        H  0.98467309  0.60684817  0.59871660     0.32500
H353        H  0.94635143  0.55947280  0.42726820     0.35400
H354        H  0.13982123  0.56353023  0.54352168     0.28000
H355        H  0.09175815  0.38317473  0.48839303     0.40900
H356        H  0.95566141  0.45060619  0.62632660     0.30900
H357        H  0.02152496  0.45492847  0.64928991     0.38500
H358        H  0.02663447  0.57085386  0.43123067     0.30400
H359        H  0.89963545  0.46947141  0.51571945     0.30400
H360        H  0.96455806  0.60661154  0.56134054     0.30700
C361        C  0.19776642  0.89864266  0.43647907     0.01000
C362        C  0.21764215  0.89414280  0.46855331     0.03900
C363        C  0.25445075  0.90400549  0.46964645    -0.12200
C364        C  0.27181756  0.91860463  0.43906698     0.23100
C365        C  0.25245030  0.92355996  0.40732690    -0.12800
C366        C  0.21551852  0.91396683  0.40601067     0.04600
C367        C  0.30973186  0.93124771  0.44122397     0.27000
C368        C  0.31628859  0.96268128  0.45536659    -0.13500
C369        C  0.35207078  0.97518930  0.45777815     0.05100
C370        C  0.38209364  0.95557128  0.44687995    -0.09400
C371        C  0.37469887  0.92492560  0.42987708     0.05900
C372        C  0.33879052  0.91253253  0.42810978    -0.13800
Br373      Br  0.27707198  0.94383251  0.36565974    -0.05900
Br374      Br  0.19461907  0.87644874  0.51244482    -0.00300
Br375      Br  0.35767847  0.01943341  0.47606848     0.00200
Br376      Br  0.32909705  0.86931366  0.40869899    -0.04200
Br377      Br  0.19080916  0.92198461  0.36176238     0.00300
Br378      Br  0.28134979  0.89822946  0.51337182    -0.03500
Br379      Br  0.27556040  0.98805659  0.47279860    -0.04400
Br380      Br  0.41256631  0.90039116  0.40589972    -0.00400
C381        C  0.06814476  0.64303980  0.51155990     0.01000
C382        C  0.10009451  0.65999828  0.52159674     0.03900
C383        C  0.10531279  0.69324768  0.51232036    -0.12200
C384        C  0.07838229  0.70968416  0.49342756     0.23100
C385        C  0.04578764  0.69320687  0.48486276    -0.12800
C386        C  0.04069308  0.65988567  0.49375101     0.04600
C387        C  0.08553098  0.74368345  0.48062757     0.27000
C388        C  0.08140466  0.77002805  0.50466555    -0.13500
C389        C  0.09349764  0.80167819  0.49418418     0.05100
C390        C  0.10401669  0.80843578  0.45716738    -0.09400
C391        C  0.11163103  0.78095519  0.43469790     0.05900
C392        C  0.10122007  0.74904337  0.44590257    -0.13800
Br393      Br  0.00861671  0.71633988  0.46020880    -0.05900
Br394      Br  0.13611717  0.63811784  0.54909923    -0.00300
Br395      Br  0.10524968  0.83128661  0.53350977     0.00200
Br396      Br  0.10937462  0.71204876  0.41408105    -0.04200
Br397      Br  0.99679407  0.63700559  0.47969747     0.00300
Br398      Br  0.14966762  0.71627487  0.52476336    -0.03500
Br399      Br  0.06023999  0.76225291  0.55263408    -0.04400
Br400      Br  0.14309660  0.78473776  0.39236087    -0.00400
C401        C  0.06643013  0.94165367  0.17232738     0.01000
C402        C  0.09367508  0.95906383  0.19108591     0.03900
C403        C  0.10168134  0.95011348  0.22685324    -0.12200
C404        C  0.08273217  0.92361522  0.24389029     0.23100
C405        C  0.05645359  0.90553309  0.22469175    -0.12800
C406        C  0.04859514  0.91431415  0.18887255     0.04600
C407        C  0.09064559  0.91444442  0.28187110     0.27000
C408        C  0.11394954  0.88852604  0.28856057    -0.13500
C409        C  0.12016060  0.87870061  0.32445944     0.05100
C410        C  0.10347839  0.89504180  0.35438208    -0.09400
C411        C  0.08207579  0.92266977  0.34724689     0.05900
C412        C  0.07497512  0.93167922  0.31119497    -0.13800
Br413      Br  0.03082897  0.86900088  0.24781697    -0.05900
Br414      Br  0.11935254  0.99585957  0.16841954    -0.00300
Br415      Br  0.15503584  0.84519438  0.33168212     0.00200
Br416      Br  0.04323447  0.96752731  0.30152983    -0.04200
Br417      Br  0.01485745  0.88777236  0.16169138     0.00300
Br418      Br  0.13816979  0.97444958  0.25291847    -0.03500
Br419      Br  0.13797242  0.86699412  0.24806719    -0.04400
Br420      Br  0.06240006  0.94923135  0.38574692    -0.00400
C421        C  0.43808731  0.18362043  0.96635005     0.01000
C422        C  0.45199170  0.18965464  0.00148376     0.03900
C423        C  0.46074527  0.22186077  0.01226429    -0.12200
C424        C  0.44952477  0.24845343  0.99160344     0.23100
C425        C  0.42840080  0.24277400  0.96100035    -0.12800
C426        C  0.42242221  0.21056545  0.94845408     0.04600
C427        C  0.45852779  0.28251805  0.00257439     0.27000
C428        C  0.43650926  0.29869217  0.02856011    -0.13500
C429        C  0.44321113  0.33204875  0.03615440     0.05100
C430        C  0.47196096  0.34913853  0.01786203    -0.09400
C431        C  0.49446640  0.33272874  0.99253111     0.05900
C432        C  0.48789939  0.29938516  0.98509845    -0.13800
Br433      Br  0.40764303  0.27949988  0.93650137    -0.05900
Br434      Br  0.44749340  0.15741323  0.03990237    -0.00300
Br435      Br  0.41315908  0.35443498  0.07155678     0.00200
Br436      Br  0.51868108  0.27668531  0.95054042    -0.04200
Br437      Br  0.38937094  0.20413719  0.90923425     0.00300
Br438      Br  0.48755591  0.22962963  0.05582437    -0.03500
Br439      Br  0.39691039  0.27520121  0.05317553    -0.04400
Br440      Br  0.53302979  0.35637377  0.96648081    -0.00400
C441        C  0.49458683  0.04931429  0.67560493     0.01000
C442        C  0.49107072  0.08378397  0.67786136     0.03900
C443        C  0.48295314  0.09881403  0.71161296    -0.12200
C444        C  0.47553756  0.07941371  0.74278369     0.23100
C445        C  0.47615308  0.04500320  0.73994991    -0.12800
C446        C  0.48690219  0.03006562  0.70704182     0.04600
C447        C  0.46970542  0.09453121  0.77931934     0.27000
C448        C  0.49702528  0.09217503  0.80511226    -0.13500
C449        C  0.48955457  0.10023212  0.84168629     0.05100
C450        C  0.45593299  0.11374799  0.85227219    -0.09400
C451        C  0.43047221  0.12010415  0.82536204     0.05900
C452        C  0.43622022  0.10839158  0.78963969    -0.13800
Br453      Br  0.46246991  0.01826210  0.78175712    -0.05900
Br454      Br  0.49440128  0.11046244  0.63449499    -0.00300
Br455      Br  0.52570363  0.09227508  0.87681621     0.00200
Br456      Br  0.39709222  0.10853023  0.75600471    -0.04200
Br457      Br  0.49296954  0.98320779  0.70644441     0.00300
Br458      Br  0.48276781  0.14598780  0.71535468    -0.03500
Br459      Br  0.54428479  0.07628510  0.79037755    -0.04400
Br460      Br  0.38808546  0.14531598  0.83691089    -0.00400
C461        C  0.36470887  0.08139343  0.94347382     0.01000
C462        C  0.34405542  0.06792434  0.91519583     0.03900
C463        C  0.30981964  0.05300043  0.92300045    -0.12200
C464        C  0.29727538  0.04908543  0.95924805     0.23100
C465        C  0.31977191  0.05877304  0.98772651    -0.12800
C466        C  0.35303287  0.07540068  0.98001411     0.04600
C467        C  0.25944481  0.03719194  0.96743887     0.27000
C468        C  0.23233084  0.06020565  0.97485532    -0.13500
C469        C  0.19656806  0.04954287  0.98341887     0.05100
C470        C  0.18711215  0.01581848  0.98290243    -0.09400
C471        C  0.21400236  0.99276084  0.97445546     0.05900
C472        C  0.25028733  0.00341729  0.96729412    -0.13800
Br473      Br  0.30472195  0.04912456  0.03732524    -0.05900
Br474      Br  0.36232613  0.06873081  0.86587368    -0.00300
Br475      Br  0.16058354  0.08143558  0.99644511     0.00200
Br476      Br  0.28736136  0.97207948  0.95612965    -0.04200
Br477      Br  0.38342951  0.08781937  0.01989744     0.00300
Br478      Br  0.27925983  0.03897599  0.88399314    -0.03500
Br479      Br  0.24389009  0.10655969  0.97146922    -0.04400
Br480      Br  0.20063606  0.94704607  0.97014745    -0.00400
C481        C  0.00809268  0.43740314  0.36610889     0.01000
C482        C  0.01635137  0.45773073  0.33580119     0.03900
C483        C  0.00475852  0.44866317  0.30116890    -0.12200
C484        C  0.98660198  0.41836132  0.29616259     0.23100
C485        C  0.98025299  0.39699273  0.32589961    -0.12800
C486        C  0.99041299  0.40671660  0.36099859     0.04600
C487        C  0.97231342  0.41013147  0.25997030     0.27000
C488        C  0.93609169  0.41721727  0.25224898    -0.13500
C489        C  0.92258252  0.41061851  0.21758646     0.05100
C490        C  0.94528947  0.39671963  0.19045198    -0.09400
C491        C  0.98224700  0.39123371  0.19781612     0.05900
C492        C  0.99550869  0.39759097  0.23257834    -0.13800
Br493      Br  0.95584929  0.35524309  0.31859037    -0.05900
Br494      Br  0.04378289  0.49815817  0.34156897    -0.00300
Br495      Br  0.87306794  0.42093091  0.20790329     0.00200
Br496      Br  0.04574667  0.38982772  0.24262382    -0.04200
Br497      Br  0.97711935  0.37932217  0.40224438     0.00300
Br498      Br  0.01151412  0.47871584  0.26085881    -0.03500
Br499      Br  0.90525768  0.43661444  0.28931511    -0.04400
Br500      Br  0.01593479  0.37799120  0.15950564    -0.00400
C501        C  0.66134753  0.45783797  0.09066623     0.01000
C502        C  0.67902663  0.43435003  0.06868008     0.03900
C503        C  0.71455546  0.42500248  0.07622394    -0.12200
C504        C  0.73302458  0.43941637  0.10535314     0.23100
C505        C  0.71544471  0.46266931  0.12756195    -0.12800
C506        C  0.67975797  0.47204616  0.12012274     0.04600
C507        C  0.77122150  0.43033026  0.11176223     0.27000
C508        C  0.77842652  0.40338509  0.13404213    -0.13500
C509        C  0.81412560  0.39196836  0.13620764     0.05100
C510        C  0.84303711  0.40755961  0.11599601    -0.09400
C511        C  0.83586264  0.43562199  0.09514832     0.05900
C512        C  0.80008219  0.44684750  0.09298093    -0.13800
Br513      Br  0.74039824  0.48134459  0.16824957    -0.05900
Br514      Br  0.65589897  0.41666832  0.02630631    -0.00300
Br515      Br  0.82289004  0.35485534  0.16709292     0.00200
Br516      Br  0.79004385  0.48393631  0.06263839    -0.04200
Br517      Br  0.65602591  0.50397084  0.15063696     0.00300
Br518      Br  0.73831998  0.39249720  0.04640237    -0.03500
Br519      Br  0.73879648  0.38137601  0.16034312    -0.04400
Br520      Br  0.87410163  0.45754925  0.06703988    -0.00400
C521        C  0.92471760  0.31245121  0.09157878     0.01000
C522        C  0.92246193  0.30314638  0.05442909     0.03900
C523        C  0.92698563  0.27014539  0.04372115    -0.12200
C524        C  0.93468899  0.24611750  0.06960806     0.23100
C525        C  0.93350698  0.25443672  0.10658289    -0.12800
C526        C  0.92425303  0.28628032  0.11741812     0.04600
C527        C  0.94361241  0.21210405  0.05810883     0.27000
C528        C  0.91823875  0.18584391  0.06327651    -0.13500
C529        C  0.92847385  0.15334158  0.05563807     0.05100
C530        C  0.96331374  0.14719934  0.04043228    -0.09400
C531        C  0.98748541  0.17390628  0.03269842     0.05900
C532        C  0.97825571  0.20593250  0.04284127    -0.13800
Br533      Br  0.94441037  0.22213209  0.14279047    -0.05900
Br534      Br  0.90808546  0.33371077  0.01818611    -0.00300
Br535      Br  0.89586390  0.11729394  0.06881899     0.00200
Br536      Br  0.01380813  0.24131095  0.03741780    -0.04200
Br537      Br  0.89952817  0.28943519  0.16440381     0.00300
Br538      Br  0.92190835  0.25724389  0.99361736    -0.03500
Br539      Br  0.86967104  0.19444833  0.08131320    -0.04400
Br540      Br  0.03300863  0.16702862  0.00688443    -0.00400
C541        C  0.48302629  0.06453612  0.96198173     0.01000
C542        C  0.46796439  0.03197807  0.96386672     0.03900
C543        C  0.48852377  0.00609690  0.97694078    -0.12200
C544        C  0.52162040  0.01273865  0.99365723     0.23100
C545        C  0.53657839  0.04470333  0.99296744    -0.12800
C546        C  0.51900328  0.06982623  0.97465732     0.04600
C547        C  0.54029669  0.98608853  0.01251404     0.27000
C548        C  0.52489157  0.97244032  0.04479708    -0.13500
C549        C  0.54106685  0.94548383  0.06101417     0.05100
C550        C  0.57539747  0.93517508  0.04824063    -0.09400
C551        C  0.59112405  0.94930444  0.01639195     0.05900
C552        C  0.57280032  0.97360379  0.99763452    -0.13800
Br553      Br  0.58079327  0.05423682  0.01844387    -0.05900
Br554      Br  0.41820509  0.02099921  0.95359731    -0.00300
Br555      Br  0.51423010  0.92076254  0.09801453     0.00200
Br556      Br  0.59140450  0.98892089  0.95086142    -0.04200
Br557      Br  0.54702190  0.10989308  0.96533501     0.00300
Br558      Br  0.47115625  0.96107196  0.97272742    -0.03500
Br559      Br  0.48179565  0.99079357  0.06702908    -0.04400
Br560      Br  0.63708549  0.93486344  0.99747610    -0.00400
C561        C  0.59404797  0.89806326  0.16957864     0.01000
C562        C  0.60193856  0.87436557  0.19652833     0.03900
C563        C  0.59236135  0.87960320  0.23331406    -0.12200
C564        C  0.58068204  0.91049865  0.24500750     0.23100
C565        C  0.57807942  0.93590032  0.21937945    -0.12800
C566        C  0.58295000  0.92956125  0.18179269     0.04600
C567        C  0.57251797  0.91677863  0.28437452     0.27000
C568        C  0.53636810  0.92146962  0.29686174    -0.13500
C569        C  0.52899435  0.93042210  0.33329145     0.05100
C570        C  0.55737955  0.93258433  0.35814506    -0.09400
C571        C  0.59320503  0.92577800  0.34614492     0.05900
C572        C  0.60096003  0.91928824  0.30917973    -0.13800
Br573      Br  0.56900480  0.97988202  0.23644374    -0.05900
Br574      Br  0.63184905  0.83702937  0.18531284    -0.00300
Br575      Br  0.48059867  0.94282497  0.34808981     0.00200
Br576      Br  0.65085755  0.91605260  0.29214218    -0.04200
Br577      Br  0.57469896  0.96527978  0.14903042     0.00300
Br578      Br  0.59545691  0.84419452  0.26785876    -0.03500
Br579      Br  0.49700825  0.91669463  0.26364429    -0.04400
Br580      Br  0.63169861  0.92466771  0.38058566    -0.00400
C581        C  0.55662335  0.64493978  0.03382895     0.01000
C582        C  0.55392417  0.66721759  0.00473416     0.03900
C583        C  0.55803007  0.70112337  0.01088549    -0.12200
C584        C  0.56592448  0.71286782  0.04586779     0.23100
C585        C  0.56918314  0.69072486  0.07477044    -0.12800
C586        C  0.56414971  0.65690014  0.06897125     0.04600
C587        C  0.57421621  0.74819140  0.05171223     0.27000
C588        C  0.60853387  0.76099464  0.04123397    -0.13500
C589        C  0.61668878  0.79453290  0.04564629     0.05100
C590        C  0.59291043  0.81495349  0.06622919    -0.09400
C591        C  0.55682871  0.80224861  0.07355936     0.05900
C592        C  0.54786920  0.76903349  0.06654398    -0.13800
Br593      Br  0.58141536  0.70698054  0.12225327    -0.05900
Br594      Br  0.54710609  0.65133509  0.95589240    -0.00300
Br595      Br  0.65372205  0.81188619  0.01294251     0.00200
Br596      Br  0.49940002  0.75162097  0.07702010    -0.04200
Br597      Br  0.56619929  0.62759899  0.10997865     0.00300
Br598      Br  0.55384897  0.73157503  0.97120429    -0.03500
Br599      Br  0.64430609  0.73226254  0.01963567    -0.04400
Br600      Br  0.51767785  0.82997188  0.08990064    -0.00400
C601        C  0.85958405  0.99806178  0.07627817     0.01000
C602        C  0.83071980  0.00941487  0.05515123     0.03900
C603        C  0.79584814  0.99415519  0.05802985    -0.12200
C604        C  0.78944052  0.96740442  0.08171691     0.23100
C605        C  0.81673973  0.95821910  0.10525913    -0.12800
C606        C  0.85057305  0.97495681  0.10447243     0.04600
C607        C  0.75402763  0.94889770  0.08260221     0.27000
C608        C  0.72971424  0.95200405  0.11245100    -0.13500
C609        C  0.69940232  0.93047658  0.11647601     0.05100
C610        C  0.68935014  0.90914602  0.08781771    -0.09400
C611        C  0.71362807  0.90707566  0.05714815     0.05900
C612        C  0.74646152  0.92563874  0.05557425    -0.13800
Br613      Br  0.80838517  0.92113893  0.13752048    -0.05900
Br614      Br  0.83689495  0.04776895  0.02487412    -0.00300
Br615      Br  0.67630714  0.92725264  0.16383674     0.00200
Br616      Br  0.78176204  0.91897154  0.01649017    -0.04200
Br617      Br  0.88173678  0.96727427  0.14492484     0.00300
Br618      Br  0.75670151  0.00932020  0.02909829    -0.03500
Br619      Br  0.73827762  0.98590848  0.14803308    -0.04400
Br620      Br  0.70312933  0.88037893  0.01580211    -0.00400
C621        C  0.49323448  0.13721951  0.52367403     0.01000
C622        C  0.45723975  0.14842841  0.52104560     0.03900
C623        C  0.45109477  0.18083899  0.51035056    -0.12200
C624        C  0.48026510  0.20369008  0.50771324     0.23100
C625        C  0.51567831  0.19372975  0.51509882    -0.12800
C626        C  0.52256483  0.16031293  0.52023108     0.04600
C627        C  0.47380311  0.23808119  0.49691980     0.27000
C628        C  0.48856008  0.25040623  0.46393830    -0.13500
C629        C  0.48599626  0.28382961  0.45576059     0.05100
C630        C  0.46087461  0.30370841  0.47548342    -0.09400
C631        C  0.44836195  0.29158358  0.51000935     0.05900
C632        C  0.45543088  0.25925608  0.52082989    -0.13800
Br633      Br  0.55487960  0.22597429  0.51794355    -0.05900
Br634      Br  0.41576900  0.12052714  0.53405237    -0.00300
Br635      Br  0.52655185  0.30248013  0.42752978     0.00200
Br636      Br  0.44117500  0.24400654  0.56910700    -0.04200
Br637      Br  0.57250253  0.14698915  0.51803793     0.00300
Br638      Br  0.40279682  0.19360815  0.49789723    -0.03500
Br639      Br  0.51357204  0.22184437  0.43011616    -0.04400
Br640      Br  0.42624458  0.31934699  0.54566399    -0.00400
C641        C  0.18051196  0.44970486  0.47300038     0.01000
C642        C  0.20909635  0.46157817  0.49477923     0.03900
C643        C  0.24490889  0.45103119  0.48850458    -0.12200
C644        C  0.25224945  0.42645672  0.46263127     0.23100
C645        C  0.22372206  0.41353554  0.44188387    -0.12800
C646        C  0.18834622  0.42597362  0.44601676     0.04600
C647        C  0.28981364  0.41350986  0.45869684     0.27000
C648        C  0.31391379  0.42496372  0.43100882    -0.13500
C649        C  0.35028896  0.41421755  0.42877952     0.05100
C650        C  0.36381532  0.39274312  0.45588392    -0.09400
C651        C  0.33929165  0.38386829  0.48519575     0.05900
C652        C  0.30237725  0.39217752  0.48505454    -0.13800
Br653      Br  0.23313574  0.37821263  0.40838434    -0.05900
Br654      Br  0.19947144  0.49023006  0.53546416    -0.00300
Br655      Br  0.37917370  0.43070801  0.38793616     0.00200
Br656      Br  0.26846004  0.37492229  0.52185690    -0.04200
Br657      Br  0.15153444  0.41180695  0.41292131     0.00300
Br658      Br  0.28430685  0.47015903  0.51554914    -0.03500
Br659      Br  0.29645836  0.45616261  0.39638753    -0.04400
Br660      Br  0.35567085  0.36597977  0.52980584    -0.00400
C661        C  0.46192084  0.38355780  0.37093166     0.01000
C662        C  0.43568513  0.37841548  0.34427247     0.03900
C663        C  0.44314034  0.38851242  0.30816520    -0.12200
C664        C  0.47793467  0.40133799  0.29796009     0.23100
C665        C  0.50574820  0.40162032  0.32347562    -0.12800
C666        C  0.49802222  0.39166225  0.35954428     0.04600
C667        C  0.48557514  0.41396054  0.26044666     0.27000
C668        C  0.48913999  0.39222012  0.23087416    -0.13500
C669        C  0.49297182  0.40447862  0.19510890     0.05100
C670        C  0.49812596  0.43860822  0.18902067    -0.09400
C671        C  0.49863760  0.45994908  0.21938484     0.05900
C672        C  0.48996717  0.44792544  0.25446173    -0.13800
Br673      Br  0.55460229  0.41518517  0.30876877    -0.05900
Br674      Br  0.39170021  0.35336459  0.35607582    -0.00300
Br675      Br  0.48803934  0.37422673  0.15509979     0.00200
Br676      Br  0.48349033  0.47816739  0.29438740    -0.04200
Br677      Br  0.53772025  0.38508070  0.39170185     0.00300
Br678      Br  0.40557753  0.38480537  0.27288241    -0.03500
Br679      Br  0.48973231  0.34559630  0.23959604    -0.04400
Br680      Br  0.51413586  0.50528827  0.21411466    -0.00400
C681        C  0.96435124  0.43625898  0.07652609     0.01000
C682        C  0.98025757  0.46179370  0.09798576     0.03900
C683        C  0.00023559  0.48826127  0.08144283    -0.12200
C684        C  0.00603579  0.48952956  0.04352698     0.23100
C685        C  0.99035377  0.46478255  0.02205304    -0.12800
C686        C  0.96871644  0.43924630  0.03810746     0.04600
C687        C  0.02642521  0.51801984  0.02591681     0.27000
C688        C  0.00727718  0.54280995  0.00838515    -0.13500
C689        C  0.02625476  0.56865451  0.98996768     0.05100
C690        C  0.06467891  0.57035518  0.98945330    -0.09400
C691        C  0.08333225  0.54823173  0.01116989     0.05900
C692        C  0.06470000  0.52102528  0.02733289    -0.13800
Br693      Br  0.99809415  0.46648460  0.96992564    -0.05900
Br694      Br  0.97642559  0.46240030  0.15018997    -0.00300
Br695      Br  0.99929885  0.60235688  0.96655104     0.00200
Br696      Br  0.09186994  0.48762869  0.05071202    -0.04200
Br697      Br  0.94139087  0.41164451  0.00601956     0.00300
Br698      Br  0.01915244  0.52387000  0.11066446    -0.03500
Br699      Br  0.95482122  0.54142442  0.00988210    -0.04400
Br700      Br  0.13267577  0.55850811  0.02423239    -0.00400
C701        C  0.18316255  0.59025172  0.93434031     0.01000
C702        C  0.21422650  0.60987465  0.92349092     0.03900
C703        C  0.24961961  0.59856330  0.92820819    -0.12200
C704        C  0.25478654  0.56693884  0.94167386     0.23100
C705        C  0.22475410  0.54542034  0.94669626    -0.12800
C706        C  0.18908910  0.55644351  0.94196043     0.04600
C707        C  0.29195033  0.55626788  0.95022516     0.27000
C708        C  0.31403443  0.54116057  0.92348861    -0.13500
C709        C  0.34957985  0.53192341  0.93161642     0.05100
C710        C  0.36305292  0.53757205  0.96658418    -0.09400
C711        C  0.34081345  0.55255136  0.99331616     0.05900
C712        C  0.30530200  0.56168598  0.98523133    -0.13800
Br713      Br  0.23316016  0.50052446  0.96034874    -0.05900
Br714      Br  0.20962216  0.65087248  0.89796437    -0.00300
Br715      Br  0.38013265  0.51224899  0.89469333     0.00200
Br716      Br  0.27440966  0.58099527  0.02228065    -0.04200
Br717      Br  0.15121317  0.52292599  0.94291043     0.00300
Br718      Br  0.29155514  0.62638475  0.91643342    -0.03500
Br719      Br  0.29507450  0.53275010  0.87602465    -0.04400
Br720      Br  0.35883472  0.55999641  0.04133546    -0.00400
C721        C  0.08253524  0.60411997  0.86724333     0.01000
C722        C  0.06052921  0.57563124  0.86109359     0.03900
C723        C  0.05384463  0.56500211  0.82533475    -0.12200
C724        C  0.06620576  0.58402204  0.79542025     0.23100
C725        C  0.08686507  0.61276433  0.80119006    -0.12800
C726        C  0.09703683  0.62139328  0.83646080     0.04600
C727        C  0.06019206  0.57276151  0.75762418     0.27000
C728        C  0.08896306  0.55872391  0.73754910    -0.13500
C729        C  0.08503237  0.55132748  0.70062313     0.05100
C730        C  0.05083896  0.55410640  0.68442023    -0.09400
C731        C  0.02160922  0.56739363  0.70498143     0.05900
C732        C  0.02678073  0.57778762  0.74104187    -0.13800
Br733      Br  0.10229798  0.63983512  0.76016644    -0.05900
Br734      Br  0.03862874  0.55043969  0.90042958    -0.00300
Br735      Br  0.12773043  0.54013477  0.67192533     0.00200
Br736      Br  0.98821359  0.59895379  0.76798182    -0.04200
Br737      Br  0.13600206  0.65293821  0.84049990     0.00300
Br738      Br  0.02901326  0.52358471  0.81687928    -0.03500
Br739      Br  0.13366400  0.54890477  0.76103012    -0.04400
Br740      Br  0.97387087  0.56984904  0.68513120    -0.00400
C741        C  0.10737346  0.68846121  0.97017720     0.01000
C742        C  0.10762622  0.71646755  0.94704611     0.03900
C743        C  0.10104792  0.74785273  0.96131008    -0.12200
C744        C  0.09863814  0.75273055  0.99900100     0.23100
C745        C  0.10469190  0.72637923  0.02242161    -0.12800
C746        C  0.11033533  0.69465608  0.00819087     0.04600
C747        C  0.09088553  0.78606453  0.01327689     0.27000
C748        C  0.11904133  0.80986209  0.01603479    -0.13500
C749        C  0.11073616  0.84327848  0.02046101     0.05100
C750        C  0.07397811  0.85276017  0.02396384    -0.09400
C751        C  0.04650658  0.82789192  0.02723636     0.05900
C752        C  0.05473101  0.79496330  0.02021990    -0.13800
Br753      Br  0.10530068  0.73415033  0.07408157    -0.05900
Br754      Br  0.12697563  0.71540259  0.89811904    -0.00300
Br755      Br  0.15008590  0.87537782  0.01955873     0.00200
Br756      Br  0.01628917  0.76205720  0.01822736    -0.04200
Br757      Br  0.12690238  0.66152392  0.04103750     0.00300
Br758      Br  0.09596559  0.78482501  0.92902783    -0.03500
Br759      Br  0.16891329  0.79645306  0.01241291    -0.04400
Br760      Br  0.99787604  0.83815319  0.04376726    -0.00400
C761        C  0.07790781  0.92927041  0.47241826     0.01000
C762        C  0.03929379  0.92881385  0.47312859     0.03900
C763        C  0.02000837  0.95326659  0.49192728    -0.12200
C764        C  0.03885616  0.97905125  0.50914155     0.23100
C765        C  0.07715552  0.98022190  0.50757188    -0.12800
C766        C  0.09662386  0.95501329  0.49016715     0.04600
C767        C  0.01841203  0.00520836  0.52853289     0.27000
C768        C  0.00187539  0.02986445  0.50868340    -0.13500
C769        C  0.98206764  0.05429503  0.52690349     0.05100
C770        C  0.98166781  0.05654148  0.56541324    -0.09400
C771        C  0.99800127  0.03126268  0.58517919     0.05900
C772        C  0.01504493  0.00517205  0.56672552    -0.13800
Br773      Br  0.10281255  0.01685339  0.52903233    -0.05900
Br774      Br  0.01206247  0.89576419  0.44691265    -0.00300
Br775      Br  0.95127063  0.08091622  0.49844184     0.00200
Br776      Br  0.03315678  0.96864812  0.59355950    -0.04200
Br777      Br  0.14872211  0.95489794  0.49333807     0.00300
Br778      Br  0.96748327  0.95159209  0.49415944    -0.03500
Br779      Br  0.00598672  0.02971880  0.45618569    -0.04400
Br780      Br  0.99863979  0.03196822  0.63739763    -0.00400
C781        C  0.98317047  0.34816781  0.53775359     0.01000
C782        C  0.01071518  0.33008058  0.55399541     0.03900
C783        C  0.00402186  0.29722299  0.56411130    -0.12200
C784        C  0.96993010  0.28228215  0.55807606     0.23100
C785        C  0.94232779  0.30028934  0.54213737    -0.12800
C786        C  0.94899540  0.33312793  0.53178180     0.04600
C787        C  0.96361395  0.24718723  0.56725697     0.27000
C788        C  0.97012909  0.22324980  0.54081549    -0.13500
C789        C  0.96333198  0.18985437  0.54879821     0.05100
C790        C  0.95279901  0.17944468  0.58474429    -0.09400
C791        C  0.94210171  0.20470216  0.60974089     0.05900
C792        C  0.94891561  0.23805504  0.60136174    -0.13800
Br793      Br  0.89535682  0.27983111  0.53471307    -0.05900
Br794      Br  0.05721856  0.35041704  0.56422504    -0.00300
Br795      Br  0.96132165  0.16140330  0.50741696     0.00200
Br796      Br  0.93703081  0.27201018  0.63611731    -0.04200
Br797      Br  0.91186043  0.35702054  0.50792847     0.00300
Br798      Br  0.04126312  0.27256040  0.58687698    -0.03500
Br799      Br  0.98690037  0.23701695  0.49269559    -0.04400
Br800      Br  0.91304223  0.19609974  0.65351668    -0.00400
C801        C  0.68178093  0.02658577  0.57305257     0.01000
C802        C  0.69940944  0.04878281  0.54858510     0.03900
C803        C  0.73506368  0.05992653  0.55487745    -0.12200
C804        C  0.75316661  0.04886035  0.58555407     0.23100
C805        C  0.73559790  0.02673760  0.61001177    -0.12800
C806        C  0.70001328  0.01537859  0.60360482     0.04600
C807        C  0.79095103  0.06024488  0.59161157     0.27000
C808        C  0.82014656  0.04266318  0.57672965    -0.13500
C809        C  0.85606206  0.05467360  0.58008906     0.05100
C810        C  0.86297327  0.08477095  0.59816229    -0.09400
C811        C  0.83321220  0.10159791  0.61425766     0.05900
C812        C  0.79749840  0.08921375  0.61109044    -0.13800
Br813      Br  0.76033538  0.01239424  0.65240833    -0.05900
Br814      Br  0.67547193  0.06266677  0.50542925    -0.00300
Br815      Br  0.89459146  0.02985824  0.55806688     0.00200
Br816      Br  0.75707994  0.11172914  0.63356903    -0.04200
Br817      Br  0.67595297  0.98510823  0.63713239     0.00300
Br818      Br  0.75939718  0.09023228  0.52144818    -0.03500
Br819      Br  0.81034480  0.00221725  0.55110195    -0.04400
Br820      Br  0.84041892  0.14073038  0.64276285    -0.00400
C821        C  0.98072812  0.05295331  0.87131599     0.01000
C822        C  0.98851823  0.03086230  0.84267869     0.03500
C823        C  0.98230894  0.03958104  0.80641772    -0.12200
C824        C  0.96826470  0.07044518  0.79826722     0.23100
C825        C  0.95960639  0.09227746  0.82679649    -0.12800
C826        C  0.96579553  0.08357910  0.86322700     0.04600
C827        C  0.96267607  0.07954918  0.75956805     0.27000
C828        C  0.99167063  0.09291448  0.73812530    -0.13500
C829        C  0.98734626  0.09894116  0.70076958     0.05100
C830        C  0.95330440  0.09286650  0.68459490    -0.09400
C831        C  0.92436031  0.07928770  0.70641117     0.05900
C832        C  0.92909441  0.07274391  0.74359669    -0.13800
Br833      Br  0.93997916  0.13436264  0.81566501    -0.05900
Br834      Br  0.00695070  0.98805516  0.85297958    -0.00300
Br835      Br  0.02922886  0.11346866  0.67161494     0.00200
Br836      Br  0.88929986  0.05484987  0.77330972    -0.04200
Br837      Br  0.95582459  0.11440154  0.90176312     0.00300
Br838      Br  0.99322667  0.00927294  0.76754284    -0.03500
Br839      Br  0.03726811  0.10343827  0.76042785    -0.04400
Br840      Br  0.87751101  0.07010066  0.68669521    -0.00400
C841        C  0.48002548  0.42631475  0.48971616     0.01000
C842        C  0.47766853  0.42832067  0.52815988     0.03900
C843        C  0.49828750  0.45190273  0.54696726    -0.12200
C844        C  0.51949454  0.47543935  0.52762495     0.23100
C845        C  0.51932884  0.47576896  0.48942399    -0.12800
C846        C  0.49948909  0.45158677  0.47045038     0.04600
C847        C  0.53934041  0.50175200  0.54736352     0.27000
C848        C  0.52021912  0.52857178  0.56147189    -0.13500
C849        C  0.53898207  0.55441987  0.57850783     0.05100
C850        C  0.57751527  0.55489677  0.57917579    -0.09400
C851        C  0.59644945  0.52727011  0.56623701     0.05900
C852        C  0.57723383  0.50047238  0.55119408    -0.13800
Br853      Br  0.54614056  0.51003497  0.46322511    -0.05900
Br854      Br  0.44243808  0.40218530  0.55545111    -0.00300
Br855      Br  0.51111573  0.58784282  0.60310055     0.00200
Br856      Br  0.60264095  0.46193076  0.53535447    -0.04200
Br857      Br  0.49826086  0.45546830  0.41849916     0.00300
Br858      Br  0.49730310  0.45236892  0.59948738    -0.03500
Br859      Br  0.46815821  0.53019644  0.55659030    -0.04400
Br860      Br  0.64866045  0.52615227  0.56706099    -0.00400
C861        C  0.60211351  0.67796690  0.57627554     0.01000
C862        C  0.59271997  0.68066910  0.53893303     0.03900
C863        C  0.58033264  0.71057835  0.52513747    -0.12200
C864        C  0.58155010  0.73900046  0.54654873     0.23100
C865        C  0.59667854  0.73781005  0.58104506    -0.12800
C866        C  0.60805280  0.70786081  0.59526508     0.04600
C867        C  0.57220909  0.77140118  0.53147090     0.27000
C868        C  0.59956732  0.79075685  0.51383526    -0.13500
C869        C  0.59417882  0.82430381  0.50780854     0.05100
C870        C  0.56084481  0.83843833  0.51823848    -0.09400
C871        C  0.53218112  0.81822281  0.53274200     0.05900
C872        C  0.53806450  0.78482140  0.53966698    -0.13800
Br873      Br  0.60370658  0.77812062  0.60797167    -0.05900
Br874      Br  0.60506840  0.64745161  0.50336342    -0.00300
Br875      Br  0.63270180  0.85078999  0.48530020     0.00200
Br876      Br  0.50010719  0.75756061  0.56198062    -0.04200
Br877      Br  0.63834439  0.71018113  0.63674732     0.00300
Br878      Br  0.56355680  0.71341924  0.47604160    -0.03500
Br879      Br  0.64502570  0.77134360  0.49930297    -0.04400
Br880      Br  0.48567061  0.83642001  0.54587832    -0.00400
C881        C  0.69627633  0.59422826  0.60474045     0.01000
C882        C  0.71569422  0.59171062  0.57101926     0.03900
C883        C  0.75189245  0.58112307  0.56990416    -0.12200
C884        C  0.76942340  0.57413598  0.60234310     0.23100
C885        C  0.75069713  0.57742579  0.63587706    -0.12800
C886        C  0.71397405  0.58625129  0.63708510     0.04600
C887        C  0.80716848  0.56198418  0.60137316     0.27000
C888        C  0.81313071  0.52814795  0.60019346    -0.13500
C889        C  0.84883424  0.51627309  0.59874164     0.05100
C890        C  0.87941455  0.53857921  0.59816568    -0.09400
C891        C  0.87245683  0.57232966  0.60482717     0.05900
C892        C  0.83671590  0.58396720  0.60474795    -0.13800
Br893      Br  0.77609740  0.57041461  0.68030523    -0.05900
Br894      Br  0.69262034  0.60097173  0.52580625    -0.00300
Br895      Br  0.85373144  0.46916393  0.60052323     0.00200
Br896      Br  0.82768518  0.63027035  0.60992652    -0.04200
Br897      Br  0.68907870  0.58725722  0.68363691     0.00300
Br898      Br  0.77779772  0.57601172  0.52398582    -0.03500
Br899      Br  0.77161839  0.49814085  0.60110414    -0.04400
Br900      Br  0.90988646  0.60291263  0.61928863    -0.00400
C901        C  0.59888524  0.60225887  0.68982752     0.01000
C902        C  0.60849593  0.62457773  0.71777773     0.03900
C903        C  0.59708675  0.61886312  0.75414457    -0.12200
C904        C  0.57975158  0.58900713  0.76406876     0.23100
C905        C  0.57391566  0.56496284  0.73738315    -0.12800
C906        C  0.58189032  0.57188866  0.70040322     0.04600
C907        C  0.56819929  0.58244025  0.80260480     0.27000
C908        C  0.59426977  0.57537390  0.82858561    -0.13500
C909        C  0.58313170  0.56787141  0.86453339     0.05100
C910        C  0.54579343  0.56454898  0.87413689    -0.09400
C911        C  0.51968265  0.57257924  0.84854650     0.05900
C912        C  0.53093957  0.58212107  0.81305413    -0.13800
Br913      Br  0.55541131  0.52203934  0.75205120    -0.05900
Br914      Br  0.64206679  0.66054562  0.70844185    -0.00300
Br915      Br  0.61920312  0.56303984  0.90109125     0.00200
Br916      Br  0.49526202  0.59351478  0.77814401    -0.04200
Br917      Br  0.56755156  0.53916304  0.66578461     0.00300
Br918      Br  0.60535472  0.65202783  0.79067065    -0.03500
Br919      Br  0.64513413  0.57370478  0.81448217    -0.04400
Br920      Br  0.46855801  0.56856513  0.86121729    -0.00400
loop_ 
_geom_bond_atom_site_label_1 
_geom_bond_atom_site_label_2 
_geom_bond_distance 
_geom_bond_site_symmetry_2 
_ccdc_geom_bond_type 
C1            C2   1.530       .  S
C1            C7   1.555       .  S
C1            C5   1.535       .  S
C1          C861   1.555       .  S
C2            H9   1.086       .  S
C2            C3   1.364       .  D
C3            C4   1.547       .  S
C3          C881   1.497       .  S
C4            C8   1.550       .  S
C4            C6   1.547       .  S
C4           H10   1.108       .  S
C5           H11   1.083       .  S
C5            C6   1.362       .  D
C6          C850   1.496       .  S
C7           H12   1.085       .  S
C7            C8   1.379       .  D
C8          C901   1.516       .  S
C13          C14   1.540       .  S
C13          C19   1.531       .  S
C13          C17   1.550       .  S
C13         C790   1.559       .  S
C14          H21   1.084       .  S
C14          C15   1.365       .  D
C15          C16   1.550       .  S
C15         C830   1.506       .  S
C16          C20   1.546       .  S
C16          C18   1.552       .  S
C16          H22   1.109       .  S
C17          H23   1.083       .  S
C17          C18   1.375       .  D
C18         C770   1.508       .  S
C19          H24   1.086       .  S
C19          C20   1.364       .  D
C20         C810   1.499       .  S
C25          C26   1.555       .  S
C25          C31   1.536       .  S
C25          C29   1.535       .  S
C25         C741   1.558       .  S
C26          H33   1.083       .  S
C26          C27   1.374       .  D
C27          C28   1.538       .  S
C27         C721   1.512       .  S
C28          C32   1.551       .  S
C28          C30   1.559       .  S
C28          H34   1.093       .  S
C29          H35   1.086   1_556  S
C29          C30   1.360       .  D
C30         C690   1.498       .  S
C31          H36   1.085       .  S
C31          C32   1.374       .  D
C32         C701   1.524       .  S
C37          C38   1.531       .  S
C37          C43   1.554       .  S
C37          C41   1.536       .  S
C37         C630   1.554       .  S
C38          H45   1.083       .  S
C38          C39   1.351       .  D
C39          C40   1.558       .  S
C39         C661   1.489       .  S
C40          C44   1.557       .  S
C40          C42   1.543       .  S
C40          H46   1.099       .  S
C41          H47   1.086       .  S
C41          C42   1.366       .  D
C42         C841   1.507       .  S
C43          H48   1.084       .  S
C43          C44   1.387       .  D
C44         C650   1.534       .  S
C49          C50   1.541       .  S
C49          C55   1.561       .  S
C49          C53   1.526       .  S
C49         C590   1.557       .  S
C50          H57   1.085       .  S
C50          C51   1.372       .  D
C51          C52   1.554       .  S
C51         C561   1.518       .  S
C52          C56   1.540       .  S
C52          C54   1.546       .  S
C52          H58   1.103       .  S
C53          H59   1.087       .  S
C53          C54   1.357       .  D
C54         C550   1.481       .  S
C55          H60   1.081       .  S
C55          C56   1.376       .  D
C56         C610   1.514       .  S
C61          C62   1.527       .  S
C61          C67   1.534       .  S
C61          C65   1.559       .  S
C61         C521   1.558       .  S
C62          H69   1.087       .  S
C62          C63   1.361       .  D
C63          C64   1.547       .  S
C63         C510   1.495       .  S
C64          C68   1.544       .  S
C64          C66   1.555       .  S
C64          H70   1.107       .  S
C65          H71   1.085       .  S
C65          C66   1.388       .  D
C66         C681   1.533       .  S
C67          H72   1.084       .  S
C67          C68   1.359       .  D
C68         C490   1.489       .  S
C73          C74   1.525       .  S
C73          C79   1.545       .  S
C73          C77   1.547       .  S
C73         C421   1.547       .  S
C74          H81   1.087       .  S
C74          C75   1.362       .  D
C75          C76   1.552       .  S
C75         C461   1.496       .  S
C76          C80   1.546       .  S
C76          C78   1.546       .  S
C76          H82   1.106       .  S
C77          H83   1.074       .  S
C77          C78   1.372       .  D
C78         C541   1.514       .  S
C79          H84   1.086       .  S
C79          C80   1.365       .  D
C80         C450   1.495       .  S
C85          C86   1.525       .  S
C85          C91   1.550       .  S
C85          C89   1.536       .  S
C85         C390   1.550       .  S
C86          H93   1.086       .  S
C86          C87   1.364       .  D
C87          C88   1.551       .  S
C87         C361   1.499       .  S
C88          C92   1.552       .  S
C88          C90   1.548       .  S
C88          H94   1.109       .  S
C89          H95   1.083       .  S
C89          C90   1.358       .  D
C90         C761   1.498       .  S
C91          H96   1.085       .  S
C91          C92   1.378       .  D
C92         C410   1.507       .  S
Zr97         O98   2.438   1_554  S
Zr97         O99   2.462       .  S
Zr97        O100   2.483       .  S
Zr97        O103   2.470   1_554  S
Zr97        O105   2.388       .  S
Zr97        O106   2.390   1_654  S
Zr97        O107   2.416   1_545  S
Zr97        O108   2.410   1_644  S
O98         H154   0.989       .  S
O98         H162   0.990       .  S
O99         C119   1.288       .  A
O100        C121   1.293       .  A
O101       Zr111   2.414       .  S
O101        C120   1.281   1_455  A
O102       Zr110   2.414       .  S
O102        C121   1.279   1_565  A
O103        C120   1.291       .  A
O104       Zr112   2.406       .  S
O104        C119   1.279   1_455  A
O105       Zr110   2.396   1_545  S
O105       Zr112   2.377   1_655  S
O106       Zr111   2.400       .  S
O106       Zr112   2.379   1_556  S
O106        H141   0.969       .  S
O107       Zr110   2.401       .  S
O107       Zr127   2.390   1_654  S
O107        H144   0.966       .  S
O108       Zr111   2.385   1_565  S
O108       Zr127   2.389       .  S
Zr109       O134   2.440       .  S
Zr109       O128   2.453       .  S
Zr109       O136   2.458       .  S
Zr109       O124   2.440       .  S
Zr109       O115   2.401   1_565  S
Zr109       O116   2.418   1_565  S
Zr109       O117   2.376       .  S
Zr109       O118   2.386   1_554  S
Zr110       O129   2.436       .  S
Zr110       O122   2.435   1_565  S
Zr110       O123   2.432   1_655  S
Zr110       O116   2.396   1_665  S
Zr110       O117   2.386   1_655  S
Zr111       O113   2.435   1_545  S
Zr111       O135   2.439       .  S
Zr111       O137   2.415       .  S
Zr111       O115   2.383   1_556  S
Zr111       O118   2.395   1_545  S
Zr112       O138   2.431       .  S
Zr112       O139   2.436       .  S
Zr112       O114   2.437       .  S
Zr112       O115   2.384       .  S
Zr112       O116   2.388       .  S
O113        H150   0.990   1_565  S
O114        H145   0.990       .  S
O114        H159   0.990       .  S
O116        H142   0.966       .  S
O117       Zr127   2.378   1_554  S
O118       Zr127   2.385       .  S
O118        H143   0.968       .  S
C119        C530   1.486       .  S
C120        C821   1.488       .  S
C121        C601   1.513   1_545  S
O122        H158   0.990       .  S
O123        C125   1.285       .  A
O124        C125   1.284       .  A
C125        C401   1.478       .  S
O126       Zr127   2.441   1_655  S
O126        H155   0.990       .  S
Zr127       O130   2.436   1_456  S
Zr127       O131   2.438       .  S
Zr127       O132   2.418   1_556  S
O128        C133   1.286       .  A
O129        H146   0.990       .  S
O129        H161   0.990       .  S
O130        H147   0.990   1_554  S
O131        H151   0.990       .  S
O131        H160   0.989       .  S
O132        C133   1.282       .  A
C133        C750   1.497       .  S
O134        H153   0.990       .  S
O134        H157   0.990       .  S
O135        H149   0.990       .  S
O135        H156   0.990       .  S
O136        C140   1.288   1_564  A
O137        C140   1.282       .  A
O138        H148   0.990       .  S
O139        H152   0.990       .  S
C140        C470   1.479       .  S
Zr163       O164   2.441       .  S
Zr163       O165   2.452       .  S
Zr163       O166   2.451       .  S
Zr163       O169   2.437       .  S
Zr163       O171   2.374       .  S
Zr163       O172   2.388   1_545  S
Zr163       O173   2.416       .  S
Zr163       O174   2.402       .  S
O164        H220   0.990       .  S
O164        H228   0.989       .  S
O165        C185   1.285       .  A
O166        C187   1.286       .  A
O167       Zr177   2.424       .  S
O167        C186   1.282   1_565  A
O168       Zr176   2.423       .  S
O168        C187   1.282       .  A
O169        C186   1.284       .  A
O170       Zr178   2.420   1_545  S
O170        C185   1.280       .  A
O171       Zr176   2.389       .  S
O171       Zr178   2.378   1_545  S
O172       Zr177   2.406       .  S
O172       Zr178   2.380       .  S
O172        H207   0.971       .  S
O173       Zr176   2.400       .  S
O173       Zr193   2.391       .  S
O173        H210   0.965       .  S
O174       Zr177   2.389   1_545  S
O174       Zr193   2.389       .  S
Zr175       O200   2.439       .  S
Zr175       O194   2.459       .  S
Zr175       O202   2.429       .  S
Zr175       O190   2.448       .  S
Zr175       O181   2.402       .  S
Zr175       O182   2.414       .  S
Zr175       O183   2.377       .  S
Zr175       O184   2.384       .  S
Zr176       O195   2.437       .  S
Zr176       O188   2.435       .  S
Zr176       O189   2.423   1_545  S
Zr176       O182   2.397   1_545  S
Zr176       O183   2.394   1_545  S
Zr177       O179   2.435       .  S
Zr177       O201   2.437       .  S
Zr177       O203   2.437       .  S
Zr177       O181   2.383       .  S
Zr177       O184   2.395       .  S
Zr178       O204   2.437       .  S
Zr178       O205   2.436       .  S
Zr178       O180   2.438       .  S
Zr178       O181   2.389       .  S
Zr178       O182   2.395       .  S
O179        H216   0.990       .  S
O180        H211   0.991       .  S
O180        H225   0.990       .  S
O182        H208   0.969       .  S
O183       Zr193   2.374   1_565  S
O184       Zr193   2.385   1_565  S
O184        H209   0.964       .  S
C185        C441   1.494       .  S
C186        C801   1.471       .  S
C187        C621   1.491       .  S
O188        H224   0.990       .  S
O189        C191   1.280       .  A
O190        C191   1.285       .  A
C191        C370   1.502       .  S
O192       Zr193   2.439       .  S
O192        H221   0.990       .  S
Zr193       O196   2.439       .  S
Zr193       O197   2.437   1_545  S
Zr193       O198   2.413   1_545  S
O194        C199   1.288       .  A
O195        H212   0.990       .  S
O195        H227   0.990       .  S
O196        H213   0.990       .  S
O197        H217   0.990       .  S
O197        H226   0.990       .  S
O198        C199   1.280       .  A
C199        C570   1.485       .  S
O200        H219   0.990       .  S
O200        H223   0.989       .  S
O201        H215   0.990       .  S
O201        H222   0.989       .  S
O202        C206   1.282       .  A
O203        C206   1.286       .  A
O204        H214   0.990       .  S
O205        H218   0.990       .  S
C206        C870   1.482       .  S
Zr229       O230   2.441       .  S
Zr229       O231   2.447       .  S
Zr229       O232   2.455       .  S
Zr229       O235   2.436       .  S
Zr229       O237   2.378       .  S
Zr229       O238   2.388       .  S
Zr229       O239   2.407       .  S
Zr229       O240   2.407       .  S
O230        H286   0.990       .  S
O230        H294   0.990       .  S
O231        C251   1.285       .  A
O232        C253   1.287       .  A
O233       Zr243   2.424       .  S
O233        C252   1.283       .  A
O234       Zr242   2.428       .  S
O234        C253   1.282       .  A
O235        C252   1.284       .  A
O236       Zr244   2.413       .  S
O236        C251   1.280       .  A
O237       Zr242   2.399       .  S
O237       Zr244   2.384       .  S
O238       Zr243   2.397       .  S
O238       Zr244   2.374       .  S
O238        H273   0.966       .  S
O239       Zr242   2.399       .  S
O239       Zr259   2.391   1_554  S
O239        H276   0.964       .  S
O240       Zr243   2.392       .  S
O240       Zr259   2.384   1_554  S
Zr241       O266   2.441       .  S
Zr241       O260   2.455       .  S
Zr241       O268   2.450       .  S
Zr241       O256   2.444   1_556  S
Zr241       O247   2.405   1_556  S
Zr241       O248   2.416   1_556  S
Zr241       O249   2.382       .  S
Zr241       O250   2.385       .  S
Zr242       O261   2.436       .  S
Zr242       O254   2.433       .  S
Zr242       O255   2.426       .  S
Zr242       O248   2.406       .  S
Zr242       O249   2.395   1_554  S
Zr243       O245   2.435   1_554  S
Zr243       O267   2.436       .  S
Zr243       O269   2.432   1_554  S
Zr243       O247   2.387       .  S
Zr243       O250   2.398   1_554  S
Zr244       O270   2.436       .  S
Zr244       O271   2.435       .  S
Zr244       O246   2.436       .  S
Zr244       O247   2.392       .  S
Zr244       O248   2.384       .  S
O245        H282   0.990       .  S
O246        H277   0.990       .  S
O246        H291   0.989       .  S
O248        H274   0.964       .  S
O249       Zr259   2.380       .  S
O250       Zr259   2.381       .  S
O250        H275   0.965       .  S
C251        C670   1.493       .  S
C252        C430   1.470       .  S
C253        C501   1.483       .  S
O254        H290   0.990       .  S
O255        C257   1.284       .  A
O256        C257   1.285       .  A
C257        C581   1.479       .  S
O258       Zr259   2.440       .  S
O258        H287   0.990       .  S
Zr259       O262   2.438       .  S
Zr259       O263   2.439       .  S
Zr259       O264   2.403       .  S
O260        C265   1.286       .  A
O261        H278   0.990       .  S
O261        H293   0.990       .  S
O262        H279   0.990       .  S
O263        H283   0.990       .  S
O263        H292   0.990       .  S
O264        C265   1.278       .  A
C265        C910   1.481       .  S
O266        H285   0.991   1_556  S
O266        H289   0.990       .  S
O267        H281   0.990       .  S
O267        H288   0.990       .  S
O268        C272   1.287       .  A
O269        C272   1.284       .  A
O270        H280   0.990       .  S
O271        H284   0.990       .  S
C272        C710   1.481       .  S
Zr295       O296   2.435   1_455  S
Zr295       O297   2.450       .  S
Zr295       O298   2.461   1_455  S
Zr295       O301   2.424       .  S
Zr295       O303   2.378       .  S
Zr295       O304   2.388       .  S
Zr295       O305   2.414   1_455  S
Zr295       O306   2.402       .  S
O296        H352   0.989       .  S
O296        H360   0.990       .  S
O297        C317   1.285       .  A
O298        C319   1.288       .  A
O299       Zr309   2.438       .  S
O299        C318   1.285       .  A
O300       Zr308   2.438       .  S
O300        C319   1.283       .  A
O301        C318   1.281       .  A
O302       Zr310   2.402       .  S
O302        C317   1.278       .  A
O303       Zr308   2.397   1_455  S
O303       Zr310   2.382       .  S
O304       Zr309   2.403       .  S
O304       Zr310   2.379       .  S
O304        H339   0.965       .  S
O305       Zr308   2.397       .  S
O305       Zr325   2.391       .  S
O305        H342   0.964       .  S
O306       Zr309   2.387       .  S
O306       Zr325   2.386   1_455  S
Zr307       O332   2.441       .  S
Zr307       O326   2.456       .  S
Zr307       O334   2.468       .  S
Zr307       O322   2.444       .  S
Zr307       O313   2.399       .  S
Zr307       O314   2.416       .  S
Zr307       O315   2.385   1_455  S
Zr307       O316   2.389       .  S
Zr308       O327   2.435       .  S
Zr308       O320   2.435       .  S
Zr308       O321   2.430       .  S
Zr308       O314   2.398   1_655  S
Zr308       O315   2.394       .  S
Zr309       O311   2.436       .  S
Zr309       O333   2.436       .  S
Zr309       O335   2.434       .  S
Zr309       O313   2.391       .  S
Zr309       O316   2.400       .  S
Zr310       O336   2.434       .  S
Zr310       O337   2.437       .  S
Zr310       O312   2.437       .  S
Zr310       O313   2.385       .  S
Zr310       O314   2.372       .  S
O311        H348   0.990       .  S
O312        H343   0.990       .  S
O312        H357   0.990       .  S
O314        H340   0.963       .  S
O315       Zr325   2.380       .  S
O316       Zr325   2.387   1_455  S
O316        H341   0.966       .  S
C317        C730   1.488       .  S
C318        C381   1.474       .  S
C319        C890   1.517       .  S
O320        H356   0.990       .  S
O321        C323   1.285       .  A
O322        C323   1.286   1_455  A
C323        C781   1.476       .  S
O324       Zr325   2.439       .  S
O324        H353   0.990       .  S
Zr325       O328   2.438       .  S
Zr325       O329   2.438   1_655  S
Zr325       O330   2.403       .  S
O326        C331   1.286       .  A
O327        H344   0.990       .  S
O327        H359   0.990       .  S
O328        H345   0.990       .  S
O329        H349   0.989       .  S
O329        H358   0.990       .  S
O330        C331   1.278   1_655  A
C331        C481   1.479       .  S
O332        H351   0.989       .  S
O332        H355   0.990       .  S
O333        H347   0.990       .  S
O333        H354   0.989       .  S
O334        C338   1.290       .  A
O335        C338   1.285       .  A
O336        H346   0.990       .  S
O337        H350   0.990       .  S
C338        C641   1.496       .  S
C361        C362   1.422       .  A
C361        C366   1.419       .  A
C362        C363   1.406       .  A
C362       Br374   1.934       .  S
C363        C364   1.404       .  A
C363       Br378   1.933       .  S
C364        C367   1.481       .  S
C364        C365   1.404       .  A
C365        C366   1.408       .  A
C365       Br373   1.935       .  S
C366       Br377   1.921       .  S
C367        C368   1.403       .  A
C367        C372   1.403       .  A
C368        C369   1.407       .  A
C368       Br379   1.936       .  S
C369        C370   1.428       .  A
C369       Br375   1.935   1_565  S
C370        C371   1.423       .  A
C371        C372   1.407       .  A
C371       Br380   1.928       .  S
C372       Br376   1.932       .  S
C381        C382   1.409       .  A
C381        C386   1.413       .  A
C382        C383   1.406       .  A
C382       Br394   1.928       .  S
C383        C384   1.410       .  A
C383       Br398   1.932       .  S
C384        C387   1.480       .  S
C384        C385   1.406       .  A
C385        C386   1.405       .  A
C385       Br393   1.929       .  S
C386       Br397   1.931   1_455  S
C387        C388   1.401       .  A
C387        C392   1.403       .  A
C388        C389   1.406       .  A
C388       Br399   1.933       .  S
C389        C390   1.431       .  A
C389       Br395   1.938       .  S
C390        C391   1.422       .  A
C391        C392   1.407       .  A
C391       Br400   1.919       .  S
C392       Br396   1.935       .  S
C401        C402   1.413       .  A
C401        C406   1.410       .  A
C402        C403   1.408       .  A
C402       Br414   1.931       .  S
C403        C404   1.410       .  A
C403       Br418   1.930       .  S
C404        C407   1.487       .  S
C404        C405   1.410       .  A
C405        C406   1.407       .  A
C405       Br413   1.929       .  S
C406       Br417   1.931       .  S
C407        C408   1.404       .  A
C407        C412   1.406       .  A
C408        C409   1.408       .  A
C408       Br419   1.933       .  S
C409        C410   1.420       .  A
C409       Br415   1.921       .  S
C410        C411   1.419       .  A
C411        C412   1.411       .  A
C411       Br420   1.920       .  S
C412       Br416   1.933       .  S
C421        C422   1.425   1_556  A
C421        C426   1.424       .  A
C422        C423   1.406       .  A
C422       Br434   1.933       .  S
C423        C424   1.402   1_554  A
C423       Br438   1.931       .  S
C424        C427   1.480   1_556  S
C424        C425   1.404       .  A
C425        C426   1.408       .  A
C425       Br433   1.933       .  S
C426       Br437   1.930       .  S
C427        C428   1.410       .  A
C427        C432   1.407   1_554  A
C428        C429   1.407       .  A
C428       Br439   1.929       .  S
C429        C430   1.408       .  A
C429       Br435   1.929       .  S
C430        C431   1.409   1_554  A
C431        C432   1.404       .  A
C431       Br440   1.929       .  S
C432       Br436   1.930       .  S
C441        C442   1.418       .  A
C441        C446   1.417       .  A
C442        C443   1.413       .  A
C442       Br454   1.932       .  S
C443        C444   1.411       .  A
C443       Br458   1.930       .  S
C444        C447   1.492       .  S
C444        C445   1.409       .  A
C445        C446   1.407       .  A
C445       Br453   1.934       .  S
C446       Br457   1.930   1_545  S
C447        C448   1.409       .  A
C447        C452   1.410       .  A
C448        C449   1.407       .  A
C448       Br459   1.934       .  S
C449        C450   1.411       .  A
C449       Br455   1.916       .  S
C450        C451   1.412       .  A
C451        C452   1.412       .  A
C451       Br460   1.926       .  S
C452       Br456   1.928       .  S
C461        C462   1.411       .  A
C461        C466   1.420       .  A
C462        C463   1.409       .  A
C462       Br474   1.918       .  S
C463        C464   1.407       .  A
C463       Br478   1.929       .  S
C464        C467   1.486       .  S
C464        C465   1.406       .  A
C465        C466   1.407       .  A
C465       Br473   1.931   1_556  S
C466       Br477   1.933   1_556  S
C467        C468   1.408       .  A
C467        C472   1.411       .  A
C468        C469   1.404       .  A
C468       Br479   1.932       .  S
C469        C470   1.412       .  A
C469       Br475   1.929       .  S
C470        C471   1.410   1_545  A
C471        C472   1.412   1_565  A
C471       Br480   1.925       .  S
C472       Br476   1.928   1_545  S
C481        C482   1.412       .  A
C481        C486   1.413   1_455  A
C482        C483   1.404       .  A
C482       Br494   1.929       .  S
C483        C484   1.406   1_455  A
C483       Br498   1.932       .  S
C484        C487   1.483       .  S
C484        C485   1.410       .  A
C485        C486   1.411       .  A
C485       Br493   1.930       .  S
C486       Br497   1.930       .  S
C487        C488   1.408       .  A
C487        C492   1.407       .  A
C488        C489   1.407       .  A
C488       Br499   1.931       .  S
C489        C490   1.411       .  A
C489       Br495   1.924       .  S
C490        C491   1.418       .  A
C491        C492   1.406       .  A
C491       Br500   1.936   1_655  S
C492       Br496   1.930   1_655  S
C501        C502   1.413       .  A
C501        C506   1.413       .  A
C502        C503   1.407       .  A
C502       Br514   1.931       .  S
C503        C504   1.408       .  A
C503       Br518   1.931       .  S
C504        C507   1.488       .  S
C504        C505   1.409       .  A
C505        C506   1.412       .  A
C505       Br513   1.928       .  S
C506       Br517   1.929       .  S
C507        C508   1.407       .  A
C507        C512   1.409       .  A
C508        C509   1.409       .  A
C508       Br519   1.931       .  S
C509        C510   1.419       .  A
C509       Br515   1.933       .  S
C510        C511   1.413       .  A
C511        C512   1.409       .  A
C511       Br520   1.926       .  S
C512       Br516   1.930       .  S
C521        C522   1.424       .  A
C521        C526   1.430       .  A
C522        C523   1.415       .  A
C522       Br534   1.921       .  S
C523        C524   1.407       .  A
C523       Br538   1.932   1_554  S
C524        C527   1.492       .  S
C524        C525   1.403       .  A
C525        C526   1.406       .  A
C525       Br533   1.932       .  S
C526       Br537   1.937       .  S
C527        C528   1.414       .  A
C527        C532   1.407       .  A
C528        C529   1.413       .  A
C528       Br539   1.929       .  S
C529        C530   1.412       .  A
C529       Br535   1.929       .  S
C530        C531   1.414       .  A
C531        C532   1.406       .  A
C531       Br540   1.929   1_655  S
C532       Br536   1.932   1_655  S
C541        C542   1.428       .  A
C541        C546   1.429       .  A
C542        C543   1.407       .  A
C542       Br554   1.924       .  S
C543        C544   1.402       .  A
C543       Br558   1.939   1_545  S
C544        C547   1.484   1_546  S
C544        C545   1.404       .  A
C545        C546   1.408       .  A
C545       Br553   1.934   1_556  S
C546       Br557   1.937       .  S
C547        C548   1.411       .  A
C547        C552   1.408   1_554  A
C548        C549   1.405       .  A
C548       Br559   1.931       .  S
C549        C550   1.409       .  A
C549       Br555   1.930       .  S
C550        C551   1.410       .  A
C551        C552   1.405   1_554  A
C551       Br560   1.917   1_554  S
C552       Br556   1.933       .  S
C561        C562   1.426       .  A
C561        C566   1.427       .  A
C562        C563   1.407       .  A
C562       Br574   1.938       .  S
C563        C564   1.405       .  A
C563       Br578   1.932       .  S
C564        C567   1.495       .  S
C564        C565   1.408       .  A
C565        C566   1.415       .  A
C565       Br573   1.935       .  S
C566       Br577   1.927       .  S
C567        C568   1.413       .  A
C567        C572   1.412       .  A
C568        C569   1.411       .  A
C568       Br579   1.930       .  S
C569        C570   1.411       .  A
C569       Br575   1.927       .  S
C570        C571   1.412       .  A
C571        C572   1.409       .  A
C571       Br580   1.931       .  S
C572       Br576   1.931       .  S
C581        C582   1.412       .  A
C581        C586   1.416       .  A
C582        C583   1.407       .  A
C582       Br594   1.933   1_554  S
C583        C584   1.411       .  A
C583       Br598   1.930   1_554  S
C584        C587   1.483       .  S
C584        C585   1.406       .  A
C585        C586   1.405       .  A
C585       Br593   1.932       .  S
C586       Br597   1.930       .  S
C587        C588   1.399       .  A
C587        C592   1.404       .  A
C588        C589   1.404       .  A
C588       Br599   1.937       .  S
C589        C590   1.425       .  A
C589       Br595   1.915       .  S
C590        C591   1.433       .  A
C591        C592   1.413       .  A
C591       Br600   1.935       .  S
C592       Br596   1.933       .  S
C601        C602   1.422   1_565  A
C601        C606   1.429       .  A
C602        C603   1.415   1_545  A
C602       Br614   1.926       .  S
C603        C604   1.408       .  A
C603       Br618   1.931   1_565  S
C604        C607   1.491       .  S
C604        C605   1.404       .  A
C605        C606   1.406       .  A
C605       Br613   1.937       .  S
C606       Br617   1.937       .  S
C607        C608   1.405       .  A
C607        C612   1.405       .  A
C608        C609   1.408       .  A
C608       Br619   1.932       .  S
C609        C610   1.420       .  A
C609       Br615   1.921       .  S
C610        C611   1.423       .  A
C611        C612   1.411       .  A
C611       Br620   1.916       .  S
C612       Br616   1.934       .  S
C621        C622   1.418       .  A
C621        C626   1.419       .  A
C622        C623   1.405       .  A
C622       Br634   1.931       .  S
C623        C624   1.407       .  A
C623       Br638   1.933       .  S
C624        C627   1.485       .  S
C624        C625   1.409       .  A
C625        C626   1.406       .  A
C625       Br633   1.935       .  S
C626       Br637   1.929       .  S
C627        C628   1.404       .  A
C627        C632   1.404       .  A
C628        C629   1.402       .  A
C628       Br639   1.934       .  S
C629        C630   1.427       .  A
C629       Br635   1.935       .  S
C630        C631   1.424       .  A
C631        C632   1.410       .  A
C631       Br640   1.911       .  S
C632       Br636   1.937       .  S
C641        C642   1.418       .  A
C641        C646   1.416       .  A
C642        C643   1.409       .  A
C642       Br654   1.930       .  S
C643        C644   1.409       .  A
C643       Br658   1.933       .  S
C644        C647   1.495       .  S
C644        C645   1.409       .  A
C645        C646   1.413       .  A
C645       Br653   1.928       .  S
C646       Br657   1.928       .  S
C647        C648   1.404       .  A
C647        C652   1.400       .  A
C648        C649   1.419       .  A
C648       Br659   1.935       .  S
C649        C650   1.436       .  A
C649       Br655   1.928       .  S
C650        C651   1.428       .  A
C651        C652   1.409       .  A
C651       Br660   1.917       .  S
C652       Br656   1.936       .  S
C661        C662   1.410       .  A
C661        C666   1.413       .  A
C662        C663   1.409       .  A
C662       Br674   1.933       .  S
C663        C664   1.413       .  A
C663       Br678   1.929       .  S
C664        C667   1.491       .  S
C664        C665   1.410       .  A
C665        C666   1.408       .  A
C665       Br673   1.931       .  S
C666       Br677   1.932       .  S
C667        C668   1.410       .  A
C667        C672   1.408       .  A
C668        C669   1.411       .  A
C668       Br679   1.930       .  S
C669        C670   1.418       .  A
C669       Br675   1.932       .  S
C670        C671   1.418       .  A
C671        C672   1.407       .  A
C671       Br680   1.931       .  S
C672       Br676   1.933       .  S
C681        C682   1.432       .  A
C681        C686   1.424       .  A
C682        C683   1.419   1_655  A
C682       Br694   1.924       .  S
C683        C684   1.407       .  A
C683       Br698   1.937       .  S
C684        C687   1.505       .  S
C684        C685   1.406   1_455  A
C685        C686   1.415       .  A
C685       Br693   1.933   1_554  S
C686       Br697   1.922       .  S
C687        C688   1.413       .  A
C687        C692   1.414       .  A
C688        C689   1.413   1_554  A
C688       Br699   1.930   1_455  S
C689        C690   1.414       .  A
C689       Br695   1.932   1_455  S
C690        C691   1.410   1_556  A
C691        C692   1.413       .  A
C691       Br700   1.930       .  S
C692       Br696   1.927       .  S
C701        C702   1.428       .  A
C701        C706   1.431       .  A
C702        C703   1.408       .  A
C702       Br714   1.932       .  S
C703        C704   1.401       .  A
C703       Br718   1.933       .  S
C704        C707   1.488       .  S
C704        C705   1.403       .  A
C705        C706   1.414       .  A
C705       Br713   1.934       .  S
C706       Br717   1.929       .  S
C707        C708   1.410       .  A
C707        C712   1.409       .  A
C708        C709   1.411       .  A
C708       Br719   1.929       .  S
C709        C710   1.411       .  A
C709       Br715   1.926       .  S
C710        C711   1.410       .  A
C711        C712   1.408       .  A
C711       Br720   1.929   1_556  S
C712       Br716   1.931   1_556  S
C721        C722   1.423       .  A
C721        C726   1.419       .  A
C722        C723   1.413       .  A
C722       Br734   1.923       .  S
C723        C724   1.406       .  A
C723       Br738   1.932       .  S
C724        C727   1.487       .  S
C724        C725   1.402       .  A
C725        C726   1.405       .  A
C725       Br733   1.935       .  S
C726       Br737   1.914       .  S
C727        C728   1.407       .  A
C727        C732   1.409       .  A
C728        C729   1.404       .  A
C728       Br739   1.932       .  S
C729        C730   1.416       .  A
C729       Br735   1.932       .  S
C730        C731   1.416       .  A
C731        C732   1.411       .  A
C731       Br740   1.928   1_455  S
C732       Br736   1.929   1_455  S
C741        C742   1.425       .  A
C741        C746   1.430   1_556  A
C742        C743   1.408       .  A
C742       Br754   1.919       .  S
C743        C744   1.403       .  A
C743       Br758   1.936       .  S
C744        C747   1.489   1_556  S
C744        C745   1.404   1_556  A
C745        C746   1.414       .  A
C745       Br753   1.930       .  S
C746       Br757   1.935       .  S
C747        C748   1.409       .  A
C747        C752   1.404       .  A
C748        C749   1.413       .  A
C748       Br759   1.929       .  S
C749        C750   1.419       .  A
C749       Br755   1.929       .  S
C750        C751   1.418       .  A
C751        C752   1.406       .  A
C751       Br760   1.929   1_455  S
C752       Br756   1.931       .  S
C761        C762   1.421       .  A
C761        C766   1.413       .  A
C762        C763   1.408       .  A
C762       Br774   1.936       .  S
C763        C764   1.408       .  A
C763       Br778   1.933   1_455  S
C764        C767   1.491   1_565  S
C764        C765   1.409       .  A
C765        C766   1.411       .  A
C765       Br773   1.931   1_565  S
C766       Br777   1.925       .  S
C767        C768   1.404       .  A
C767        C772   1.408       .  A
C768        C769   1.408   1_455  A
C768       Br779   1.935       .  S
C769        C770   1.421       .  A
C769       Br775   1.922       .  S
C770        C771   1.418       .  A
C771        C772   1.413   1_655  A
C771       Br780   1.924       .  S
C772       Br776   1.931   1_545  S
C781        C782   1.415   1_655  A
C781        C786   1.410       .  A
C782        C783   1.406       .  A
C782       Br794   1.932       .  S
C783        C784   1.406   1_455  A
C783       Br798   1.931       .  S
C784        C787   1.483       .  S
C784        C785   1.410       .  A
C785        C786   1.407       .  A
C785       Br793   1.929       .  S
C786       Br797   1.930       .  S
C787        C788   1.399       .  A
C787        C792   1.400       .  A
C788        C789   1.409       .  A
C788       Br799   1.938       .  S
C789        C790   1.430       .  A
C789       Br795   1.918       .  S
C790        C791   1.436       .  A
C791        C792   1.410       .  A
C791       Br800   1.936       .  S
C792       Br796   1.935       .  S
C801        C802   1.411       .  A
C801        C806   1.409       .  A
C802        C803   1.405       .  A
C802       Br814   1.931       .  S
C803        C804   1.408       .  A
C803       Br818   1.931       .  S
C804        C807   1.479       .  S
C804        C805   1.408       .  A
C805        C806   1.406       .  A
C805       Br813   1.928       .  S
C806       Br817   1.928   1_545  S
C807        C808   1.404       .  A
C807        C812   1.402       .  A
C808        C809   1.408       .  A
C808       Br819   1.933       .  S
C809        C810   1.418       .  A
C809       Br815   1.922       .  S
C810        C811   1.421       .  A
C811        C812   1.405       .  A
C811       Br820   1.928       .  S
C812       Br816   1.933       .  S
C821        C822   1.415       .  A
C821        C826   1.412       .  A
C822        C823   1.409       .  A
C822       Br834   1.930   1_645  S
C823        C824   1.408       .  A
C823       Br838   1.931       .  S
C824        C827   1.494       .  S
C824        C825   1.412       .  A
C825        C826   1.414       .  A
C825       Br833   1.927       .  S
C826       Br837   1.929       .  S
C827        C828   1.408       .  A
C827        C832   1.407       .  A
C828        C829   1.412       .  A
C828       Br839   1.930   1_655  S
C829        C830   1.420       .  A
C829       Br835   1.934   1_655  S
C830        C831   1.417       .  A
C831        C832   1.412       .  A
C831       Br840   1.920       .  S
C832       Br836   1.932       .  S
C841        C842   1.418       .  A
C841        C846   1.419       .  A
C842        C843   1.407       .  A
C842       Br854   1.920       .  S
C843        C844   1.404       .  A
C843       Br858   1.934       .  S
C844        C847   1.486       .  S
C844        C845   1.407       .  A
C845        C846   1.411       .  A
C845       Br853   1.933       .  S
C846       Br857   1.922       .  S
C847        C848   1.406       .  A
C847        C852   1.409       .  A
C848        C849   1.405       .  A
C848       Br859   1.933       .  S
C849        C850   1.419       .  A
C849       Br855   1.935       .  S
C850        C851   1.415       .  A
C851        C852   1.411       .  A
C851       Br860   1.925       .  S
C852       Br856   1.930       .  S
C861        C862   1.433       .  A
C861        C866   1.422       .  A
C862        C863   1.413       .  A
C862       Br874   1.938       .  S
C863        C864   1.403       .  A
C863       Br878   1.932       .  S
C864        C867   1.486       .  S
C864        C865   1.403       .  A
C865        C866   1.407       .  A
C865       Br873   1.937       .  S
C866       Br877   1.919       .  S
C867        C868   1.408       .  A
C867        C872   1.408       .  A
C868        C869   1.406       .  A
C868       Br879   1.930       .  S
C869        C870   1.411       .  A
C869       Br875   1.930       .  S
C870        C871   1.416       .  A
C871        C872   1.409       .  A
C871       Br880   1.931       .  S
C872       Br876   1.930       .  S
C881        C882   1.419       .  A
C881        C886   1.416       .  A
C882        C883   1.410       .  A
C882       Br894   1.933       .  S
C883        C884   1.407       .  A
C883       Br898   1.931       .  S
C884        C887   1.486       .  S
C884        C885   1.404       .  A
C885        C886   1.407       .  A
C885       Br893   1.933       .  S
C886       Br897   1.921       .  S
C887        C888   1.403       .  A
C887        C892   1.402       .  A
C888        C889   1.411       .  A
C888       Br899   1.935       .  S
C889        C890   1.430       .  A
C889       Br895   1.936       .  S
C890        C891   1.427       .  A
C891        C892   1.410       .  A
C891       Br900   1.924       .  S
C892       Br896   1.934       .  S
C901        C902   1.421       .  A
C901        C906   1.424       .  A
C902        C903   1.409       .  A
C902       Br914   1.920       .  S
C903        C904   1.405       .  A
C903       Br918   1.933       .  S
C904        C907   1.492       .  S
C904        C905   1.406       .  A
C905        C906   1.412       .  A
C905       Br913   1.935       .  S
C906       Br917   1.922       .  S
C907        C908   1.410       .  A
C907        C912   1.413       .  A
C908        C909   1.406       .  A
C908       Br919   1.931       .  S
C909        C910   1.413       .  A
C909       Br915   1.932       .  S
C910        C911   1.410       .  A
C911        C912   1.411       .  A
C911       Br920   1.929       .  S
C912       Br916   1.929       .  S
