geometry optimzed in LAMMPS
_audit_creation_date              2020-11-30 
_audit_creation_method            'lammps2cif' 
_symmetry_space_group_name_H-M    'P1' 
_symmetry_Int_Tables_number       1 
_symmetry_cell_setting            triclinic 
loop_ 
_symmetry_equiv_pos_as_xyz 
  x,y,z 
_cell_length_a                    39.393376033097525 
_cell_length_b                    39.470915993457965 
_cell_length_c                    36.486045800038504 
_cell_angle_alpha                 89.67663698637253 
_cell_angle_beta                  90.46760611817713 
_cell_angle_gamma                 90.91336575554223 
loop_ 
_atom_site_label 
_atom_site_type_symbol 
_atom_site_fract_x 
_atom_site_fract_y 
_atom_site_fract_z 
_atom_site_charge 
C1          C  0.50027909  0.99908866  0.01908587     0.01480
C2          C  0.50056652  0.99919357  0.48123237     0.01480
N3          N  0.49338290  0.14058859  0.32450868    -0.26370
N4          N  0.49485429  0.11201892  0.30592157    -0.34230
C5          C  0.49577800  0.08588192  0.32956642     0.01970
C6          C  0.49483567  0.09852616  0.36479854     0.07990
C7          C  0.49342868  0.13336111  0.36065226    -0.05110
H8          H  0.49642283  0.05949707  0.32168938     0.08660
H9          H  0.49164333  0.15195288  0.38219029     0.09860
Cu10       Cu  0.49424126  0.10950945  0.24930027     0.44170
Cu11       Cu  0.49058095  0.18751621  0.29891604     0.41990
Cu12       Cu  0.49853248  0.18775098  0.19863228     0.43880
N13         N  0.49337997  0.11208449  0.19265207    -0.33760
N14         N  0.49490387  0.14070665  0.17371148    -0.28010
C15         C  0.49511910  0.13346160  0.13766405    -0.04120
C16         C  0.49377229  0.09860034  0.13398436     0.08100
C17         C  0.49273868  0.08590515  0.16933271     0.01900
H18         H  0.49752004  0.15205512  0.11591378     0.09550
H19         H  0.49273450  0.05949816  0.17751556     0.08630
N20         N  0.49782826  0.23096865  0.23073213    -0.35210
N21         N  0.49280511  0.23083834  0.26650854    -0.27390
C22         C  0.49133735  0.26299061  0.27821383    -0.02630
C23         C  0.49638059  0.28461922  0.24858399     0.05980
C24         C  0.50054387  0.26322834  0.21896104     0.04070
H25         H  0.48681596  0.26999335  0.30632354     0.09180
H26         H  0.50531732  0.27046453  0.19084197     0.08010
N27         N  0.50622227  0.85802721  0.32615109    -0.26370
N28         N  0.50730479  0.88663832  0.30717492    -0.34230
C29         C  0.50854136  0.91282082  0.33049851     0.01970
C30         C  0.50821709  0.90015489  0.36591673     0.07990
C31         C  0.50665580  0.86527569  0.36218842    -0.05110
H32         H  0.50956438  0.93921428  0.32228462     0.08660
H33         H  0.50625987  0.84658211  0.38397632     0.09860
Cu34       Cu  0.50714909  0.88902431  0.25048175     0.44170
Cu35       Cu  0.50457528  0.81082123  0.30147141     0.41990
Cu36       Cu  0.50250873  0.81035375  0.20100264     0.43880
N37         N  0.50662301  0.88614346  0.19384575    -0.33760
N38         N  0.50526318  0.85740705  0.17540371    -0.28010
C39         C  0.50445380  0.86447158  0.13922870    -0.04120
C40         C  0.50520555  0.89931453  0.13494787     0.08100
C41         C  0.50649570  0.91221134  0.17005498     0.01900
H42         H  0.50226605  0.84573908  0.11778260     0.09550
H43         H  0.50650058  0.93866181  0.17774778     0.08630
N44         N  0.50080030  0.76709023  0.23364352    -0.35210
N45         N  0.50232247  0.76726896  0.26989907    -0.27390
C46         C  0.50216147  0.73510465  0.28228998    -0.02630
C47         C  0.50016148  0.71376993  0.25244532     0.05980
C48         C  0.49926986  0.73479467  0.22206348     0.04070
H49         H  0.50351134  0.72780546  0.31085741     0.09180
H50         H  0.49830265  0.72718830  0.19365496     0.08010
C51         C  0.99952621  0.49677238  0.48101512     0.01480
C52         C  0.00143668  0.49708694  0.01878255     0.01480
N53         N  0.14002642  0.49126385  0.32505126    -0.26370
N54         N  0.11186513  0.49645412  0.30602557    -0.34230
C55         C  0.08554759  0.49762078  0.32901371     0.01970
C56         C  0.09761023  0.49304876  0.36429459     0.07990
C57         C  0.13227703  0.48899771  0.36089325    -0.05110
H58         H  0.05958196  0.50233340  0.32072708     0.08660
H59         H  0.15061058  0.48600833  0.38285402     0.09860
Cu60       Cu  0.10979989  0.50288795  0.24996139     0.44170
Cu61       Cu  0.18762336  0.49056731  0.30105936     0.41990
Cu62       Cu  0.18837981  0.50802002  0.20226717     0.43880
N63         N  0.11284143  0.50356623  0.19361918    -0.33760
N64         N  0.14180968  0.50490059  0.17567759    -0.28010
C65         C  0.13531094  0.50194813  0.13954970    -0.04120
C66         C  0.10051077  0.49859013  0.13471312     0.08100
C67         C  0.08712527  0.49994795  0.16957300     0.01900
H68         H  0.15450986  0.50129883  0.11854575     0.09550
H69         H  0.06062567  0.49769289  0.17700264     0.08630
N70         N  0.23144896  0.50504719  0.23502972    -0.35210
N71         N  0.23139618  0.49703433  0.27026525    -0.27390
C72         C  0.26370394  0.49488578  0.28220899    -0.02630
C73         C  0.28517632  0.50218778  0.25318673     0.05980
C74         C  0.26369147  0.50873329  0.22382645     0.04070
H75         H  0.27096765  0.48805927  0.30987649     0.09180
H76         H  0.27090198  0.51535370  0.19614586     0.08010
N77         N  0.85861210  0.51065447  0.32497682    -0.26370
N78         N  0.88763907  0.51053064  0.30705666    -0.34230
C79         C  0.91336835  0.50862122  0.33128045     0.01970
C80         C  0.89992937  0.50762780  0.36612682     0.07990
C81         C  0.86513446  0.50899861  0.36123949    -0.05110
H82         H  0.93989284  0.50698613  0.32403687     0.08660
H83         H  0.84599421  0.50746664  0.38230130     0.09860
Cu84       Cu  0.89114300  0.51059886  0.25052942     0.44170
Cu85       Cu  0.81182573  0.51016417  0.29854355     0.41990
Cu86       Cu  0.81315064  0.50854493  0.19820990     0.43880
N87         N  0.88927812  0.50932593  0.19388899    -0.33760
N88         N  0.86081776  0.50840179  0.17445608    -0.28010
C89         C  0.86852003  0.50759705  0.13857588    -0.04120
C90         C  0.90352534  0.50815107  0.13544350     0.08100
C91         C  0.91580080  0.50919532  0.17103278     0.01900
H92         H  0.85005709  0.50703135  0.11647719     0.09550
H93         H  0.94215661  0.50976522  0.17969048     0.08630
N94         N  0.76918248  0.50820882  0.22919012    -0.35210
N95         N  0.76877149  0.50839900  0.26545032    -0.27390
C96         C  0.73637261  0.50717788  0.27675240    -0.02630
C97         C  0.71541208  0.50637626  0.24618506     0.05980
C98         C  0.73701934  0.50708475  0.21649842     0.04070
H99         H  0.72864472  0.50691207  0.30511674     0.09180
H100        H  0.72991393  0.50634608  0.18783331     0.08010
O101        O  0.49958348  0.44988373  0.21904615    -0.72030
O102        O  0.50031232  0.55196466  0.22058436    -0.73010
O103        O  0.55092830  0.50150649  0.21787380    -0.61630
O104        O  0.44925481  0.50113895  0.22087391    -0.70040
O105        O  0.45065093  0.50054304  0.28142560    -0.69590
O106        O  0.55305431  0.49872847  0.27861442    -0.60840
O107        O  0.50355373  0.55052372  0.28138592    -0.73350
O108        O  0.49979308  0.44905895  0.27953694    -0.72130
Cu109      Cu  0.49998918  0.50110522  0.21749968     1.04560
Cu110      Cu  0.50187737  0.49966349  0.28234361     1.04330
C111        C  0.49920400  0.43313383  0.24918807     0.94170
C112        C  0.50193019  0.56720828  0.25136729     0.93310
C113        C  0.56808219  0.50025274  0.24767458     0.85450
C114        C  0.43364110  0.50111553  0.25140773     0.91730
C115        C  0.67774121  0.50432374  0.24555348    -0.04420
C116        C  0.66070954  0.47708664  0.26311469    -0.01540
C117        C  0.62491110  0.47547311  0.26332504     0.03450
C118        C  0.60579142  0.50118543  0.24623791    -0.04420
C119        C  0.62287954  0.52788405  0.22763651    -0.01530
C120        C  0.65871190  0.52953259  0.22747708     0.03450
C121        C  0.68002967  0.44996571  0.27984985     0.38100
C122        C  0.60364599  0.55414090  0.20925706     0.38090
C123        C  0.67597506  0.55787434  0.20979077     0.36510
C124        C  0.60797038  0.44618394  0.27928985     0.36510
N125        N  0.68977937  0.58050059  0.19575634    -0.38310
N126        N  0.59520106  0.42223791  0.29172528    -0.38310
N127        N  0.58833301  0.57505460  0.19452736    -0.37750
N128        N  0.69542083  0.42829889  0.29309808    -0.37760
C129        C  0.32309289  0.50183532  0.25299699    -0.04420
C130        C  0.34040447  0.48612476  0.22404284    -0.01540
C131        C  0.37620530  0.48671851  0.22299062     0.03450
C132        C  0.39553476  0.50167106  0.25185140    -0.04420
C133        C  0.37806129  0.51733773  0.28093700    -0.01530
C134        C  0.34216906  0.51761059  0.28132263     0.03450
C135        C  0.32153292  0.46804059  0.19569219     0.38100
C136        C  0.39675469  0.53476010  0.30984300     0.38090
C137        C  0.32498996  0.53540623  0.31033941     0.36510
C138        C  0.39267856  0.47176442  0.19171047     0.36510
N139        N  0.31135462  0.54961085  0.33350615    -0.38310
N140        N  0.40524324  0.46032871  0.16614956    -0.38310
N141        N  0.41152579  0.54870446  0.33295416    -0.37750
N142        N  0.30666646  0.45357577  0.17302421    -0.37760
C143        C  0.08100205  0.49362605  0.10008141    -0.04420
C144        C  0.08461418  0.51666660  0.07069272    -0.01540
C145        C  0.06119418  0.51602822  0.04106292     0.03450
C146        C  0.03397560  0.49184312  0.04051701    -0.04550
C147        C  0.03409693  0.46570064  0.06748912    -0.01530
C148        C  0.05681661  0.46710380  0.09743399     0.03450
C149        C  0.11076896  0.54299289  0.07236507     0.38100
C150        C  0.01078502  0.43697090  0.06502127     0.38090
C151        C  0.05480832  0.44135773  0.12599735     0.36510
C152        C  0.06440934  0.54248167  0.01368087     0.36510
N153        N  0.05295824  0.42094978  0.14882738    -0.38310
N154        N  0.06912408  0.56474801  0.99350958    -0.38310
N155        N  0.99336271  0.41310061  0.06401067    -0.37750
N156        N  0.13158314  0.56399162  0.07362029    -0.37760
C157        C  0.03044921  0.49807273  0.45677920    -0.04420
C158        C  0.05267027  0.47026764  0.45337597    -0.01540
C159        C  0.07540499  0.46887522  0.42359246     0.03450
C160        C  0.07746345  0.49588849  0.39824508    -0.04420
C161        C  0.05836039  0.52515493  0.40396423    -0.01530
C162        C  0.03452392  0.52603736  0.43237905     0.03450
C163        C  0.05134909  0.44196360  0.47874396     0.38100
C164        C  0.06347259  0.55476434  0.38065815     0.38090
C165        C  0.01536564  0.55682426  0.43688829     0.36510
C166        C  0.09496446  0.43858330  0.41752895     0.36510
N167        N  0.00157881  0.58235867  0.43954199    -0.38310
N168        N  0.11037133  0.41435139  0.41246429    -0.38310
N169        N  0.06758630  0.57846645  0.36231209    -0.37750
N170        N  0.05127522  0.41854174  0.49795584    -0.37760
C171        C  0.92424017  0.50814662  0.10159081    -0.04420
C172        C  0.92065293  0.48189065  0.07572141    -0.01540
C173        C  0.94379550  0.47939783  0.04640504     0.03450
C174        C  0.97108625  0.50317770  0.04295164    -0.04420
C175        C  0.97251445  0.53107746  0.06745498    -0.01530
C176        C  0.94931045  0.53346096  0.09640673     0.03450
C177        C  0.89452632  0.45595441  0.08072789     0.38100
C178        C  0.99734807  0.55829318  0.06284216     0.38090
C179        C  0.95121756  0.56232124  0.12093898     0.36510
C180        C  0.94028263  0.45072650  0.02204603     0.36510
N181        N  0.95283006  0.58536375  0.14038643    -0.38310
N182        N  0.93615805  0.42699544  0.00398493    -0.38310
N183        N  0.01613758  0.58098295  0.06004435    -0.37750
N184        N  0.87375822  0.43522815  0.08475946    -0.37760
C185        C  0.91917644  0.50192267  0.40060724    -0.04420
C186        C  0.93762908  0.47200406  0.40508487    -0.01540
C187        C  0.96102025  0.46885030  0.43420475     0.03450
C188        C  0.96649642  0.49583899  0.45937801    -0.04420
C189        C  0.94438772  0.52398794  0.45737038    -0.01530
C190        C  0.92123497  0.52712361  0.42769916     0.03450
C191        C  0.93287734  0.44446727  0.37917660     0.38100
C192        C  0.94641547  0.55131055  0.48359520     0.38090
C193        C  0.90131993  0.55756297  0.42348340     0.36510
C194        C  0.97913600  0.43728684  0.43779591     0.36510
N195        N  0.88558818  0.58190455  0.42001128    -0.38310
N196        N  0.99210522  0.41122107  0.43967570    -0.38310
N197        N  0.94663414  0.57425302  0.50319830    -0.37750
N198        N  0.92907895  0.42251328  0.35858055    -0.37760
C199        C  0.50041911  0.67624115  0.25280890    -0.04420
C200        C  0.47132376  0.65760052  0.24154685    -0.01540
C201        C  0.47181873  0.62187199  0.24121163     0.03450
C202        C  0.50136493  0.60465235  0.25229277    -0.04420
C203        C  0.53013841  0.62326122  0.26451846    -0.01530
C204        C  0.52978475  0.65899562  0.26441641     0.03450
C205        C  0.44054392  0.67518583  0.23138861     0.38100
C206        C  0.56026032  0.60565874  0.27680076     0.38090
C207        C  0.55999844  0.67805467  0.27521953     0.36510
C208        C  0.44149082  0.60275655  0.23083139     0.36510
N209        N  0.58411934  0.69330509  0.28367216    -0.38310
N210        N  0.41725328  0.58749976  0.22278103    -0.38310
N211        N  0.58426307  0.59168620  0.28678300    -0.37750
N212        N  0.41596078  0.68924246  0.22348110    -0.37760
C213        C  0.49814599  0.39500474  0.24914501    -0.04420
C214        C  0.48331549  0.37687789  0.21939702    -0.01540
C215        C  0.48155489  0.34108787  0.21995527     0.03450
C216        C  0.49708524  0.32255410  0.24866485    -0.04420
C217        C  0.51291557  0.34050141  0.27775060    -0.01530
C218        C  0.51177412  0.37621048  0.27903821     0.03450
C219        C  0.46886467  0.39461616  0.18820114     0.38100
C220        C  0.53186599  0.32252438  0.30587332     0.38090
C221        C  0.52459471  0.39306281  0.31171127     0.36510
C222        C  0.46227007  0.32359255  0.19152338     0.36510
N223        N  0.53434925  0.40611147  0.33819773    -0.38310
N224        N  0.44670199  0.30984752  0.16887084    -0.38310
N225        N  0.54719571  0.30839421  0.32825001    -0.37750
N226        N  0.45766311  0.40820453  0.16277840    -0.37760
C227        C  0.50170965  0.03097370  0.04206583    -0.04420
C228        C  0.52882562  0.03485361  0.06778569    -0.01540
C229        C  0.52677445  0.05816407  0.09666842     0.03450
C230        C  0.49799546  0.07842116  0.10021974    -0.04420
C231        C  0.47261129  0.07756392  0.07282559    -0.01530
C232        C  0.47438168  0.05407259  0.04370558     0.03450
C233        C  0.55968062  0.01553736  0.06466074     0.38100
C234        C  0.44349248  0.09941902  0.07597348     0.38090
C235        C  0.44661747  0.05283044  0.01751511     0.36510
C236        C  0.55443836  0.06117018  0.12311658     0.36510
N237        N  0.42347007  0.05302365  0.99779420    -0.38310
N238        N  0.57647537  0.06352820  0.14416366    -0.38310
N239        N  0.42024883  0.11679350  0.07854176    -0.37750
N240        N  0.58523076  0.00154914  0.06323694    -0.37760
C241        C  0.49282729  0.07811972  0.39906693    -0.04420
C242        C  0.51770976  0.08153279  0.42683399    -0.01540
C243        C  0.51891008  0.05795018  0.45622785     0.03450
C244        C  0.49496531  0.03061964  0.45798689    -0.04420
C245        C  0.46777378  0.03009333  0.43208371    -0.01530
C246        C  0.46698437  0.05339090  0.40277722     0.03450
C247        C  0.54356392  0.10799829  0.42381477     0.38100
C248        C  0.43975000  0.00601367  0.43537862     0.38090
C249        C  0.43938176  0.05177787  0.37612932     0.36510
C250        C  0.54647292  0.06115285  0.48249603     0.36510
N251        N  0.41742035  0.05041506  0.35489909    -0.38310
N252        N  0.56932597  0.06509421  0.50221701    -0.38310
N253        N  0.41631072  0.98802648  0.43692636    -0.37750
N254        N  0.56419383  0.12908367  0.42142685    -0.37760
C255        C  0.50135586  0.91931581  0.10069961    -0.04420
C256        C  0.47233751  0.93907079  0.09556493    -0.01540
C257        C  0.47084389  0.96275041  0.06664506     0.03450
C258        C  0.49850357  0.96701729  0.04210390    -0.04420
C259        C  0.52598541  0.94415412  0.04507146    -0.01530
C260        C  0.52747378  0.92075350  0.07459673     0.03450
C261        C  0.44389306  0.93516874  0.12043546     0.38100
C262        C  0.55420387  0.94561568  0.01993957     0.38090
C263        C  0.55706855  0.89971383  0.07962142     0.36510
C264        C  0.44009909  0.98217683  0.06231684     0.36510
N265        N  0.58072610  0.88305745  0.08375000    -0.38310
N266        N  0.41466381  0.99631748  0.05982658    -0.38310
N267        N  0.57772757  0.94557143  0.00115815    -0.37750
N268        N  0.42118153  0.93202149  0.14015288    -0.37760
C269        C  0.50965193  0.92045949  0.40010356    -0.04420
C270        C  0.48391904  0.91738688  0.42661156    -0.01540
C271        C  0.48239525  0.94072711  0.45587652     0.03450
C272        C  0.50650561  0.96784180  0.45847040    -0.04420
C273        C  0.53427040  0.96826400  0.43376963    -0.01530
C274        C  0.53572404  0.94482501  0.40490974     0.03450
C275        C  0.45743643  0.89168529  0.42227894     0.38100
C276        C  0.56213567  0.99245718  0.43786356     0.38090
C277        C  0.56427704  0.94586341  0.37992771     0.36510
C278        C  0.45429765  0.93756676  0.48103287     0.36510
N279        N  0.58705704  0.94673709  0.36009319    -0.38310
N280        N  0.43099145  0.93362220  0.49976199    -0.38310
N281        N  0.58540358  0.01061263  0.44019019    -0.37750
N282        N  0.43625973  0.87126690  0.41880962    -0.37760
C283        C  0.50025268  0.99907774  0.51908717     0.01480
C284        C  0.50059238  0.99920159  0.98123114     0.01480
N285        N  0.49340079  0.14059087  0.82450193    -0.26370
N286        N  0.49486686  0.11202089  0.80591482    -0.34230
C287        C  0.49579802  0.08588437  0.82955970     0.01970
C288        C  0.49486583  0.09852928  0.86479198     0.07990
C289        C  0.49345720  0.13336412  0.86064569    -0.05110
H290        H  0.49643829  0.05949930  0.82168277     0.08660
H291        H  0.49167581  0.15195608  0.88218400     0.09860
Cu292      Cu  0.49423118  0.10951060  0.74929413     0.44170
Cu293      Cu  0.49058809  0.18751692  0.79890814     0.41990
Cu294      Cu  0.49851349  0.18774934  0.69862058     0.43880
N295        N  0.49334894  0.11208320  0.69264651    -0.33760
N296        N  0.49487114  0.14070403  0.67370346    -0.28010
C297        C  0.49507779  0.13345642  0.63765646    -0.04120
C298        C  0.49372649  0.09859495  0.63397982     0.08100
C299        C  0.49269965  0.08590233  0.66932938     0.01900
H300        H  0.49747872  0.15204803  0.61590429     0.09550
H301        H  0.49269846  0.05949593  0.67751434     0.08630
N302        N  0.49781991  0.23096739  0.73072063    -0.35210
N303        N  0.49280423  0.23083762  0.76649831    -0.27390
C304        C  0.49133991  0.26298994  0.77820377    -0.02630
C305        C  0.49637831  0.28461827  0.74857279     0.05980
C306        C  0.50053470  0.26322695  0.71894882     0.04070
H307        H  0.48682435  0.26999279  0.80631460     0.09180
H308        H  0.50530302  0.27046260  0.69082858     0.08010
N309        N  0.50622582  0.85802852  0.82615503    -0.26370
N310        N  0.50731419  0.88663879  0.80717757    -0.34230
C311        C  0.50855377  0.91282208  0.83050014     0.01970
C312        C  0.50822536  0.90015759  0.86591897     0.07990
C313        C  0.50665850  0.86527840  0.86219205    -0.05110
H314        H  0.50958214  0.93921512  0.82228516     0.08660
H315        H  0.50625884  0.84658568  0.88398075     0.09860
Cu316      Cu  0.50716287  0.88902280  0.75048389     0.44170
Cu317      Cu  0.50457415  0.81082123  0.80147808     0.41990
Cu318      Cu  0.50251534  0.81035021  0.70100977     0.43880
N319        N  0.50663726  0.88613911  0.69384765    -0.33760
N320        N  0.50527440  0.85740163  0.67540768    -0.28010
C321        C  0.50446254  0.86446388  0.63923222    -0.04120
C322        C  0.50521628  0.89930648  0.63494873     0.08100
C323        C  0.50650961  0.91220552  0.67005487     0.01900
H324        H  0.50226993  0.84573019  0.61778780     0.09550
H325        H  0.50651419  0.93865648  0.67774570     0.08630
N326        N  0.50080160  0.76708796  0.73365202    -0.35210
N327        N  0.50232080  0.76726762  0.76990767    -0.27390
C328        C  0.50215762  0.73510355  0.78229953    -0.02630
C329        C  0.50015923  0.71376819  0.75245526     0.05980
C330        C  0.49927093  0.73479221  0.72207280     0.04070
H331        H  0.50350544  0.72780496  0.81086724     0.09180
H332        H  0.49830622  0.72718520  0.69366442     0.08010
C333        C  0.99952618  0.49677238  0.98101514     0.01480
C334        C  0.00143673  0.49708693  0.51878252     0.01480
N335        N  0.14002635  0.49126369  0.82505126    -0.26370
N336        N  0.11186506  0.49645407  0.80602559    -0.34230
C337        C  0.08554755  0.49762080  0.82901375     0.01970
C338        C  0.09761019  0.49304873  0.86429462     0.07990
C339        C  0.13227697  0.48899756  0.86089326    -0.05110
H340        H  0.05958193  0.50233351  0.82072714     0.08660
H341        H  0.15061052  0.48600810  0.88285401     0.09860
Cu342      Cu  0.10979979  0.50288798  0.74996143     0.44170
Cu343      Cu  0.18762327  0.49056700  0.80105933     0.41990
Cu344      Cu  0.18837969  0.50802044  0.70226729     0.43880
N345        N  0.11284134  0.50356635  0.69361922    -0.33760
N346        N  0.14180961  0.50490087  0.67567766    -0.28010
C347        C  0.13531090  0.50194839  0.63954976    -0.04120
C348        C  0.10051075  0.49859024  0.63471315     0.08100
C349        C  0.08712522  0.49994798  0.66957301     0.01900
H350        H  0.15450985  0.50129917  0.61854583     0.09550
H351        H  0.06062562  0.49769280  0.67700264     0.08630
N352        N  0.23144885  0.50504734  0.73502980    -0.35210
N353        N  0.23139608  0.49703409  0.77026522    -0.27390
C354        C  0.26370385  0.49488523  0.78220887    -0.02630
C355        C  0.28517623  0.50218747  0.75318666     0.05980
C356        C  0.26369135  0.50873344  0.72382652     0.04070
H357        H  0.27096756  0.48805833  0.80987625     0.09180
H358        H  0.27090182  0.51535416  0.69614601     0.08010
N359        N  0.85861212  0.51065456  0.82497678    -0.26370
N360        N  0.88763910  0.51053067  0.80705662    -0.34230
C361        C  0.91336838  0.50862121  0.83128042     0.01970
C362        C  0.89992938  0.50762783  0.86612679     0.07990
C363        C  0.86513447  0.50899870  0.86123944    -0.05110
H364        H  0.93989286  0.50698607  0.82403685     0.08660
H365        H  0.84599423  0.50746677  0.88230126     0.09860
Cu366      Cu  0.89114302  0.51059887  0.75052938     0.44170
Cu367      Cu  0.81182576  0.51016434  0.79854349     0.41990
Cu368      Cu  0.81315066  0.50854504  0.69820983     0.43880
N369        N  0.88927814  0.50932593  0.69388895    -0.33760
N370        N  0.86081778  0.50840182  0.67445603    -0.28010
C371        C  0.86852006  0.50759707  0.63857584    -0.04120
C372        C  0.90352538  0.50815105  0.63544346     0.08100
C373        C  0.91580082  0.50919529  0.67103275     0.01900
H374        H  0.85005712  0.50703139  0.61647714     0.09550
H375        H  0.94215663  0.50976518  0.67969046     0.08630
N376        N  0.76918250  0.50820904  0.72919005    -0.35210
N377        N  0.76877152  0.50839924  0.76545026    -0.27390
C378        C  0.73637265  0.50717811  0.77675235    -0.02630
C379        C  0.71541211  0.50637647  0.74618501     0.05980
C380        C  0.73701935  0.50708495  0.71649836     0.04070
H381        H  0.72864476  0.50691224  0.80511668     0.09180
H382        H  0.72991394  0.50634619  0.68783326     0.08010
O383        O  0.49958338  0.44988425  0.71904241    -0.72030
O384        O  0.50031219  0.55196498  0.72058746    -0.73010
O385        O  0.55092829  0.50150701  0.71787372    -0.61630
O386        O  0.44925472  0.50113929  0.72087346    -0.70040
O387        O  0.45065073  0.50054011  0.78142515    -0.69590
O388        O  0.55305417  0.49872577  0.77861417    -0.60840
O389        O  0.50355344  0.55052072  0.78138897    -0.73350
O390        O  0.49979292  0.44905626  0.77953321    -0.72130
Cu391      Cu  0.49998912  0.50110576  0.71749938     1.04560
Cu392      Cu  0.50187718  0.49966052  0.78234326     1.04330
C393        C  0.49920390  0.43313280  0.74918332     0.94170
C394        C  0.50192980  0.56720689  0.75137140     0.93310
C395        C  0.56808214  0.50025172  0.74767446     0.85450
C396        C  0.43364097  0.50111430  0.75140728     0.91730
C397        C  0.67774125  0.50432369  0.74555345    -0.04420
C398        C  0.66070982  0.47708633  0.76311444    -0.01540
C399        C  0.62491139  0.47547245  0.76332472     0.03450
C400        C  0.60579143  0.50118476  0.74623789    -0.04420
C401        C  0.62287936  0.52788377  0.72763689    -0.01530
C402        C  0.65871173  0.52953253  0.72747734     0.03450
C403        C  0.68003021  0.44996550  0.77984945     0.38100
C404        C  0.60364562  0.55414088  0.70925815     0.38090
C405        C  0.67597467  0.55787446  0.70979116     0.36510
C406        C  0.60797108  0.44618291  0.77928915     0.36510
N407        N  0.68977883  0.58050084  0.69575679    -0.38310
N408        N  0.59520237  0.42223646  0.79172435    -0.38310
N409        N  0.58833247  0.57505481  0.69452905    -0.37750
N410        N  0.69542157  0.42829876  0.79309758    -0.37760
C411        C  0.32309281  0.50183479  0.75299681    -0.04420
C412        C  0.34040424  0.48612492  0.72404209    -0.01540
C413        C  0.37620506  0.48671871  0.72298967     0.03450
C414        C  0.39553466  0.50167012  0.75185099    -0.04420
C415        C  0.37806137  0.51733604  0.78093719    -0.01530
C416        C  0.34216914  0.51760922  0.78132287     0.03450
C417        C  0.32153258  0.46804144  0.69569102     0.38100
C418        C  0.39675499  0.53475749  0.80984367     0.38090
C419        C  0.32499026  0.53540439  0.81034014     0.36510
C420        C  0.39267816  0.47176605  0.69170861     0.36510
N421        N  0.31135510  0.54960865  0.83350727    -0.38310
N422        N  0.40524262  0.46033163  0.66614689    -0.38310
N423        N  0.41152628  0.54870112  0.83295519    -0.37750
N424        N  0.30666604  0.45357713  0.67302271    -0.37760
C425        C  0.08100207  0.49362611  0.60008141    -0.04420
C426        C  0.08461419  0.51666665  0.57069271    -0.01540
C427        C  0.06119421  0.51602824  0.54106289     0.03450
C428        C  0.03397565  0.49184312  0.54051698    -0.04550
C429        C  0.03409699  0.46570065  0.56748910    -0.01530
C430        C  0.05681666  0.46710383  0.59743398     0.03450
C431        C  0.11076895  0.54299296  0.57236506     0.38100
C432        C  0.01078509  0.43697089  0.56502125     0.38090
C433        C  0.05480838  0.44135775  0.62599733     0.36510
C434        C  0.06440937  0.54248167  0.51368083     0.36510
N435        N  0.05295832  0.42094979  0.64882736    -0.38310
N436        N  0.06912411  0.56474800  0.49350952    -0.38310
N437        N  0.99336280  0.41310060  0.56401065    -0.37750
N438        N  0.13158311  0.56399172  0.57362028    -0.37760
C439        C  0.03044918  0.49807273  0.95677923    -0.04420
C440        C  0.05267024  0.47026763  0.95337601    -0.01540
C441        C  0.07540496  0.46887521  0.92359251     0.03450
C442        C  0.07746343  0.49588847  0.89824513    -0.04420
C443        C  0.05836038  0.52515492  0.90396427    -0.01530
C444        C  0.03452391  0.52603736  0.93237908     0.03450
C445        C  0.05134905  0.44196359  0.97874401     0.38100
C446        C  0.06347260  0.55476434  0.88065820     0.38090
C447        C  0.01536563  0.55682426  0.93688832     0.36510
C448        C  0.09496442  0.43858328  0.91752900     0.36510
N449        N  0.00157880  0.58235868  0.93954202    -0.38310
N450        N  0.11037129  0.41435137  0.91246435    -0.38310
N451        N  0.06758632  0.57846644  0.86231214    -0.37750
N452        N  0.05127517  0.41854174  0.99795588    -0.37760
C453        C  0.92424020  0.50814660  0.60159079    -0.04420
C454        C  0.92065297  0.48189063  0.57572139    -0.01540
C455        C  0.94379555  0.47939780  0.54640502     0.03450
C456        C  0.97108630  0.50317768  0.54295162    -0.04420
C457        C  0.97251449  0.53107745  0.56745495    -0.01530
C458        C  0.94931049  0.53346095  0.59640671     0.03450
C459        C  0.89452636  0.45595439  0.58072786     0.38100
C460        C  0.99734810  0.55829317  0.56284214     0.38090
C461        C  0.95121759  0.56232122  0.62093895     0.36510
C462        C  0.94028269  0.45072647  0.52204602     0.36510
N463        N  0.95283007  0.58536374  0.64038640    -0.38310
N464        N  0.93615811  0.42699540  0.50398493    -0.38310
N465        N  0.01613761  0.58098294  0.56004433    -0.37750
N466        N  0.87375827  0.43522813  0.58475944    -0.37760
C467        C  0.91917645  0.50192269  0.90060721    -0.04420
C468        C  0.93762907  0.47200408  0.90508486    -0.01540
C469        C  0.96102023  0.46885031  0.93420475     0.03450
C470        C  0.96649639  0.49583900  0.95937802    -0.04420
C471        C  0.94438770  0.52398795  0.95737037    -0.01530
C472        C  0.92123496  0.52712363  0.92769914     0.03450
C473        C  0.93287735  0.44446729  0.87917658     0.38100
C474        C  0.94641544  0.55131056  0.98359520     0.38090
C475        C  0.90131993  0.55756300  0.92348337     0.36510
C476        C  0.97913596  0.43728684  0.93779593     0.36510
N477        N  0.88558819  0.58190458  0.92001124    -0.38310
N478        N  0.99210518  0.41122107  0.93967573    -0.38310
N479        N  0.94663410  0.57425303  0.00319831    -0.37750
N480        N  0.92907897  0.42251330  0.85858053    -0.37760
C481        C  0.50041683  0.67623948  0.75281923    -0.04420
C482        C  0.47132153  0.65759888  0.74155705    -0.01540
C483        C  0.47181708  0.62187041  0.74121997     0.03450
C484        C  0.50136386  0.60465083  0.75229932    -0.04420
C485        C  0.53013725  0.62325961  0.76452540    -0.01530
C486        C  0.52978294  0.65899399  0.76442534     0.03450
C487        C  0.44054134  0.67518416  0.73140004     0.38100
C488        C  0.56025982  0.60565707  0.77680564     0.38090
C489        C  0.55999643  0.67805312  0.77522888     0.36510
C490        C  0.44148936  0.60275494  0.73083915     0.36510
N491        N  0.58411717  0.69330363  0.78368188    -0.38310
N492        N  0.41725198  0.58749815  0.72278825    -0.38310
N493        N  0.58426311  0.59168445  0.78678615    -0.37750
N494        N  0.41595792  0.68924074  0.72349350    -0.37760
C495        C  0.49814602  0.39500381  0.74913797    -0.04420
C496        C  0.48331428  0.37687839  0.71938971    -0.01540
C497        C  0.48155278  0.34108838  0.71994659     0.03450
C498        C  0.49708479  0.32255322  0.74865413    -0.04420
C499        C  0.51291776  0.34049936  0.77773921    -0.01530
C500        C  0.51177555  0.37620823  0.77902932     0.03450
C501        C  0.46886296  0.39461814  0.68819512     0.38100
C502        C  0.53187175  0.32252158  0.80585852     0.38090
C503        C  0.52459616  0.39305886  0.81170339     0.36510
C504        C  0.46226523  0.32359475  0.69151561     0.36510
N505        N  0.53435040  0.40610604  0.83819083    -0.38310
N506        N  0.44669489  0.30985125  0.66886376    -0.38310
N507        N  0.54720440  0.30839092  0.82823249    -0.37750
N508        N  0.45766110  0.40820765  0.66277326    -0.37760
C509        C  0.50167451  0.03096183  0.54206861    -0.04420
C510        C  0.52879033  0.03484946  0.56778744    -0.01540
C511        C  0.52673575  0.05816333  0.59666644     0.03450
C512        C  0.49795171  0.07841332  0.60021754    -0.04420
C513        C  0.47256506  0.07754602  0.57282645    -0.01530
C514        C  0.47434020  0.05405324  0.54370830     0.03450
C515        C  0.55964880  0.01553816  0.56466532     0.38100
C516        C  0.44343976  0.09939235  0.57597561     0.38090
C517        C  0.44657464  0.05280111  0.51751988     0.36510
C518        C  0.55440151  0.06118041  0.62311111     0.36510
N519        N  0.42342602  0.05298535  0.49780040    -0.38310
N520        N  0.57644003  0.06354738  0.64415527    -0.38310
N521        N  0.42019079  0.11675965  0.57854510    -0.37750
N522        N  0.58520148  0.00155418  0.56324422    -0.37760
C523        C  0.49285933  0.07812352  0.89906077    -0.04420
C524        C  0.51774550  0.08153380  0.92682437    -0.01540
C525        C  0.51894448  0.05795291  0.95621991     0.03450
C526        C  0.49499525  0.03062662  0.95798337    -0.04420
C527        C  0.46780120  0.03010319  0.93208340    -0.01530
C528        C  0.46701263  0.05339924  0.90277566     0.03450
C529        C  0.54360378  0.10799473  0.92380020     0.38100
C530        C  0.43977291  0.00602951  0.93538427     0.38090
C531        C  0.43940658  0.05178962  0.87613165     0.36510
C532        C  0.54650868  0.06115351  0.98248674     0.36510
N533        N  0.41744248  0.05042947  0.85490452    -0.38310
N534        N  0.56936233  0.06509240  0.00220745    -0.38310
N535        N  0.41632989  0.98804762  0.93693674    -0.37750
N536        N  0.56423700  0.12907648  0.92140821    -0.37760
C537        C  0.50135792  0.91930511  0.60069989    -0.04420
C538        C  0.47233246  0.93904986  0.59556630    -0.01540
C539        C  0.47082976  0.96272899  0.56664651     0.03450
C540        C  0.49848690  0.96700462  0.54210343    -0.04420
C541        C  0.52597602  0.94414983  0.54506915    -0.01530
C542        C  0.52747394  0.92075072  0.57459526     0.03450
C543        C  0.44389041  0.93513823  0.62043853     0.38100
C544        C  0.55419262  0.94561972  0.51993520     0.38090
C545        C  0.55707608  0.89972108  0.57961892     0.36510
C546        C  0.44007897  0.98214657  0.56232149     0.36510
N547        N  0.58073955  0.88307283  0.58374674    -0.38310
N548        N  0.41463926  0.99627980  0.55983408    -0.38310
N549        N  0.57771552  0.94558232  0.50115241    -0.37750
N550        N  0.42118084  0.93198302  0.64015732    -0.37760
C551        C  0.50966343  0.92046311  0.90010521    -0.04420
C552        C  0.48392980  0.91739597  0.92661303    -0.01540
C553        C  0.48241049  0.94073694  0.95587774     0.03450
C554        C  0.50652591  0.96784724  0.95847125    -0.04420
C555        C  0.53429129  0.96826302  0.93377134    -0.01530
C556        C  0.53574049  0.94482330  0.90491171     0.03450
C557        C  0.45744240  0.89169927  0.92228073     0.38100
C558        C  0.56216193  0.99244984  0.93786641     0.38090
C559        C  0.56429423  0.94585518  0.87993054     0.36510
C560        C  0.45431328  0.93758121  0.98103514     0.36510
N561        N  0.58707484  0.94672355  0.86009670    -0.38310
N562        N  0.43100733  0.93364035  0.99976543    -0.38310
N563        N  0.58543399  0.01059982  0.94019420    -0.37750
N564        N  0.43626187  0.87128479  0.91881176    -0.37760
loop_ 
_geom_bond_atom_site_label_1 
_geom_bond_atom_site_label_2 
_geom_bond_distance 
_geom_bond_site_symmetry_2 
_ccdc_geom_bond_type 
C1          C227   1.516   1_565  S
C1          C258   1.516       .  S
C1          C284   1.381   1_554  D
C2          C244   1.517   1_565  S
C2          C272   1.517       .  S
C2          C283   1.381       .  D
N3            N4   1.321       .  A
N3            C7   1.348       .  A
N3          Cu11   2.074       .  S
N4            C5   1.342       .  A
N4          Cu10   2.069       .  S
C5            C6   1.383       .  A
C5            H8   1.083       .  S
C6            C7   1.384       .  A
C6          C241   1.485       .  S
C7            H9   1.082       .  S
Cu10         N13   2.069       .  S
Cu11         N21   2.075       .  S
Cu12         N14   2.075       .  S
Cu12         N20   2.075       .  S
N13          N14   1.322       .  A
N13          C17   1.342       .  A
N14          C15   1.348       .  A
C15          C16   1.383       .  A
C15          H18   1.082       .  S
C16          C17   1.382       .  A
C16         C230   1.483       .  S
C17          H19   1.083       .  S
N20          N21   1.322       .  A
N20          C24   1.344       .  A
N21          C22   1.344       .  A
C22          C23   1.387       .  A
C22          H25   1.081       .  S
C23          C24   1.388       .  A
C23         C216   1.497       .  S
C24          H26   1.081       .  S
N27          N28   1.322       .  A
N27          C31   1.347       .  A
N27         Cu35   2.074       .  S
N28          C29   1.342       .  A
N28         Cu34   2.070       .  S
C29          C30   1.383       .  A
C29          H32   1.083       .  S
C30          C31   1.385       .  A
C30         C269   1.487       .  S
C31          H33   1.082       .  S
Cu34         N37   2.070       .  S
Cu35         N45   2.075       .  S
Cu36         N38   2.076       .  S
Cu36         N44   2.077       .  S
N37          N38   1.322       .  A
N37          C41   1.342       .  A
N38          C39   1.348       .  A
C39          C40   1.383       .  A
C39          H42   1.082       .  S
C40          C41   1.381       .  A
C40         C255   1.482       .  S
C41          H43   1.083       .  S
N44          N45   1.324       .  A
N44          C48   1.345       .  A
N45          C46   1.345       .  A
C46          C47   1.381       .  A
C46          H49   1.081       .  S
C47          C48   1.382       .  A
C47         C199   1.481       .  S
C48          H50   1.081       .  S
C51         C157   1.511   1_655  S
C51         C188   1.516       .  S
C51         C334   1.380   1_655  D
C52         C146   1.518       .  S
C52         C174   1.514   1_455  S
C52         C333   1.380   1_454  D
N53          N54   1.322       .  A
N53          C57   1.347       .  A
N53         Cu61   2.076       .  S
N54          C55   1.340       .  A
N54         Cu60   2.061       .  S
C55          C56   1.380       .  A
C55          H58   1.083       .  S
C56          C57   1.384       .  A
C56         C160   1.482       .  S
C57          H59   1.082       .  S
Cu60         N63   2.060       .  S
Cu61         N71   2.077       .  S
Cu62         N64   2.071       .  S
Cu62         N70   2.072       .  S
N63          N64   1.320       .  A
N63          C67   1.341       .  A
N64          C65   1.346       .  A
C65          C66   1.385       .  A
C65          H68   1.082       .  S
C66          C67   1.382       .  A
C66         C143   1.486       .  S
C67          H69   1.083       .  S
N70          N71   1.322       .  A
N70          C74   1.343       .  A
N71          C72   1.346       .  A
C72          C73   1.387       .  A
C72          H75   1.081       .  S
C73          C74   1.386       .  A
C73         C129   1.494       .  S
C74          H76   1.081       .  S
N77          N78   1.322       .  A
N77          C81   1.347       .  A
N77         Cu85   2.073       .  S
N78          C79   1.342       .  A
N78         Cu84   2.068       .  S
C79          C80   1.381       .  A
C79          H82   1.083       .  S
C80          C81   1.383       .  A
C80         C185   1.482       .  S
C81          H83   1.082       .  S
Cu84         N87   2.068       .  S
Cu85         N95   2.074       .  S
Cu86         N88   2.075       .  S
Cu86         N94   2.076       .  S
N87          N88   1.322       .  A
N87          C91   1.342       .  A
N88          C89   1.347       .  A
C89          C90   1.384       .  A
C89          H92   1.082       .  S
C90          C91   1.383       .  A
C90         C171   1.486       .  S
C91          H93   1.083       .  S
N94          N95   1.323       .  A
N94          C98   1.346       .  A
N95          C96   1.345       .  A
C96          C97   1.382       .  A
C96          H99   1.081       .  S
C97          C98   1.383       .  A
C97         C115   1.485       .  S
C98         H100   1.081       .  S
O101       Cu109   2.022       .  S
O101        C111   1.280       .  A
O102       Cu109   2.011       .  S
O102        C112   1.278       .  A
O103       Cu109   2.006       .  S
O103        C113   1.277       .  A
O104       Cu109   2.003       .  S
O104        C114   1.277       .  A
O105       Cu110   2.019       .  S
O105        C114   1.280       .  A
O106       Cu110   2.023       .  S
O106        C113   1.280       .  A
O107       Cu110   2.008       .  S
O107        C112   1.276       .  A
O108       Cu110   2.001       .  S
O108        C111   1.276       .  A
Cu109      Cu110   2.367       .  S
C111        C213   1.505       .  S
C112        C202   1.479       .  S
C113        C118   1.487       .  S
C114        C132   1.502       .  S
C115        C116   1.412       .  A
C115        C120   1.413       .  A
C116        C117   1.411       .  A
C116        C121   1.452       .  S
C117        C118   1.413       .  A
C117        C124   1.448       .  S
C118        C119   1.415       .  A
C119        C120   1.412       .  A
C119        C122   1.451       .  S
C120        C123   1.451       .  S
C121        N128   1.157       .  T
C122        N127   1.157       .  T
C123        N125   1.157       .  T
C124        N126   1.156       .  T
C129        C130   1.414       .  A
C129        C134   1.414       .  A
C130        C131   1.411       .  A
C130        C135   1.453       .  S
C131        C132   1.420       .  A
C131        C138   1.451       .  S
C132        C133   1.420       .  A
C133        C134   1.414       .  A
C133        C136   1.452       .  S
C134        C137   1.452       .  S
C135        N142   1.157       .  T
C136        N141   1.157       .  T
C137        N139   1.157       .  T
C138        N140   1.157       .  T
C143        C144   1.409       .  A
C143        C148   1.407       .  A
C144        C145   1.416       .  A
C144        C149   1.453       .  S
C145        C146   1.424       .  A
C145        C152   1.446       .  S
C146        C147   1.422       .  A
C147        C148   1.407       .  A
C147        C150   1.451       .  S
C148        C151   1.453       .  S
C149        N156   1.157       .  T
C150        N155   1.157   1_455  T
C151        N153   1.157       .  T
C152        N154   1.157   1_554  T
C157        C158   1.421       .  A
C157        C162   1.422       .  A
C158        C159   1.416       .  A
C158        C163   1.447       .  S
C159        C160   1.409       .  A
C159        C166   1.452       .  S
C160        C161   1.406       .  A
C161        C162   1.405       .  A
C161        C164   1.454       .  S
C162        C165   1.452       .  S
C163        N170   1.157       .  T
C164        N169   1.157       .  T
C165        N167   1.157       .  T
C166        N168   1.157       .  T
C171        C172   1.410       .  A
C171        C176   1.407       .  A
C172        C173   1.416       .  A
C172        C177   1.452       .  S
C173        C174   1.422       .  A
C173        C180   1.447       .  S
C174        C175   1.422       .  A
C175        C176   1.407       .  A
C175        C178   1.451       .  S
C176        C179   1.453       .  S
C177        N184   1.157       .  T
C178        N183   1.157   1_655  T
C179        N181   1.157       .  T
C180        N182   1.157       .  T
C185        C186   1.405       .  A
C185        C190   1.407       .  A
C186        C187   1.407       .  A
C186        C191   1.453       .  S
C187        C188   1.423       .  A
C187        C194   1.450       .  S
C188        C189   1.424       .  A
C189        C190   1.416       .  A
C189        C192   1.447       .  S
C190        C193   1.452       .  S
C191        N198   1.157       .  T
C192        N197   1.157       .  T
C193        N195   1.157       .  T
C194        N196   1.157       .  T
C199        C200   1.412       .  A
C199        C204   1.412       .  A
C200        C201   1.411       .  A
C200        C205   1.451       .  S
C201        C202   1.412       .  A
C201        C208   1.452       .  S
C202        C203   1.411       .  A
C203        C204   1.411       .  A
C203        C206   1.451       .  S
C204        C207   1.451       .  S
C205        N212   1.157       .  T
C206        N211   1.157       .  T
C207        N209   1.157       .  T
C208        N210   1.157       .  T
C213        C214   1.420       .  A
C213        C218   1.422       .  A
C214        C215   1.413       .  A
C214        C219   1.450       .  S
C215        C216   1.415       .  A
C215        C222   1.452       .  S
C216        C217   1.414       .  A
C217        C218   1.412       .  A
C217        C220   1.453       .  S
C218        C221   1.452       .  S
C219        N226   1.157       .  T
C220        N225   1.158       .  T
C221        N223   1.158       .  T
C222        N224   1.157       .  T
C227        C228   1.423       .  A
C227        C232   1.424       .  A
C228        C229   1.407       .  A
C228        C233   1.451       .  S
C229        C230   1.405       .  A
C229        C236   1.454       .  S
C230        C231   1.408       .  A
C231        C232   1.417       .  A
C231        C234   1.452       .  S
C232        C235   1.447       .  S
C233        N240   1.157       .  T
C234        N239   1.157       .  T
C235        N237   1.157   1_554  T
C236        N238   1.157       .  T
C241        C242   1.409       .  A
C241        C246   1.406       .  A
C242        C243   1.417       .  A
C242        C247   1.452       .  S
C243        C244   1.423       .  A
C243        C250   1.447       .  S
C244        C245   1.423       .  A
C245        C246   1.407       .  A
C245        C248   1.450       .  S
C246        C249   1.454       .  S
C247        N254   1.157       .  T
C248        N253   1.157   1_545  T
C249        N251   1.157       .  T
C250        N252   1.157       .  T
C255        C256   1.405       .  A
C255        C260   1.408       .  A
C256        C257   1.407       .  A
C256        C261   1.453       .  S
C257        C258   1.423       .  A
C257        C264   1.451       .  S
C258        C259   1.423       .  A
C259        C260   1.417       .  A
C259        C262   1.447       .  S
C260        C263   1.452       .  S
C261        N268   1.157       .  T
C262        N267   1.157       .  T
C263        N265   1.157       .  T
C264        N266   1.157       .  T
C269        C270   1.410       .  A
C269        C274   1.406       .  A
C270        C271   1.416       .  A
C270        C275   1.452       .  S
C271        C272   1.423       .  A
C271        C278   1.447       .  S
C272        C273   1.423       .  A
C273        C274   1.408       .  A
C273        C276   1.451       .  S
C274        C277   1.453       .  S
C275        N282   1.157       .  T
C276        N281   1.157   1_565  T
C277        N279   1.157       .  T
C278        N280   1.157       .  T
C283        C509   1.516   1_565  S
C283        C540   1.516       .  S
C284        C526   1.517   1_565  S
C284        C554   1.517       .  S
N285        N286   1.321       .  A
N285        C289   1.348       .  A
N285       Cu293   2.074       .  S
N286        C287   1.342       .  A
N286       Cu292   2.069       .  S
C287        C288   1.383       .  A
C287        H290   1.083       .  S
C288        C289   1.384       .  A
C288        C523   1.485       .  S
C289        H291   1.082       .  S
Cu292       N295   2.069       .  S
Cu293       N303   2.075       .  S
Cu294       N296   2.075       .  S
Cu294       N302   2.075       .  S
N295        N296   1.322       .  A
N295        C299   1.342       .  A
N296        C297   1.348       .  A
C297        C298   1.383       .  A
C297        H300   1.082       .  S
C298        C299   1.382       .  A
C298        C512   1.483       .  S
C299        H301   1.083       .  S
N302        N303   1.322       .  A
N302        C306   1.344       .  A
N303        C304   1.344       .  A
C304        C305   1.387       .  A
C304        H307   1.081       .  S
C305        C306   1.388       .  A
C305        C498   1.497       .  S
C306        H308   1.081       .  S
N309        N310   1.322       .  A
N309        C313   1.347       .  A
N309       Cu317   2.074       .  S
N310        C311   1.342       .  A
N310       Cu316   2.070       .  S
C311        C312   1.383       .  A
C311        H314   1.083       .  S
C312        C313   1.385       .  A
C312        C551   1.487       .  S
C313        H315   1.082       .  S
Cu316       N319   2.070       .  S
Cu317       N327   2.075       .  S
Cu318       N320   2.076       .  S
Cu318       N326   2.077       .  S
N319        N320   1.322       .  A
N319        C323   1.342       .  A
N320        C321   1.348       .  A
C321        C322   1.383       .  A
C321        H324   1.082       .  S
C322        C323   1.381       .  A
C322        C537   1.482       .  S
C323        H325   1.083       .  S
N326        N327   1.324       .  A
N326        C330   1.345       .  A
N327        C328   1.345       .  A
C328        C329   1.381       .  A
C328        H331   1.081       .  S
C329        C330   1.382       .  A
C329        C481   1.481       .  S
C330        H332   1.081       .  S
C333        C439   1.511   1_655  S
C333        C470   1.516       .  S
C334        C428   1.518       .  S
C334        C456   1.514   1_455  S
N335        N336   1.322       .  A
N335        C339   1.347       .  A
N335       Cu343   2.076       .  S
N336        C337   1.340       .  A
N336       Cu342   2.061       .  S
C337        C338   1.380       .  A
C337        H340   1.083       .  S
C338        C339   1.384       .  A
C338        C442   1.482       .  S
C339        H341   1.082       .  S
Cu342       N345   2.060       .  S
Cu343       N353   2.077       .  S
Cu344       N346   2.071       .  S
Cu344       N352   2.072       .  S
N345        N346   1.320       .  A
N345        C349   1.341       .  A
N346        C347   1.346       .  A
C347        C348   1.385       .  A
C347        H350   1.082       .  S
C348        C349   1.382       .  A
C348        C425   1.486       .  S
C349        H351   1.083       .  S
N352        N353   1.322       .  A
N352        C356   1.343       .  A
N353        C354   1.346       .  A
C354        C355   1.387       .  A
C354        H357   1.081       .  S
C355        C356   1.386       .  A
C355        C411   1.494       .  S
C356        H358   1.081       .  S
N359        N360   1.322       .  A
N359        C363   1.347       .  A
N359       Cu367   2.073       .  S
N360        C361   1.342       .  A
N360       Cu366   2.068       .  S
C361        C362   1.381       .  A
C361        H364   1.083       .  S
C362        C363   1.383       .  A
C362        C467   1.482       .  S
C363        H365   1.082       .  S
Cu366       N369   2.068       .  S
Cu367       N377   2.074       .  S
Cu368       N370   2.075       .  S
Cu368       N376   2.076       .  S
N369        N370   1.322       .  A
N369        C373   1.342       .  A
N370        C371   1.347       .  A
C371        C372   1.384       .  A
C371        H374   1.082       .  S
C372        C373   1.383       .  A
C372        C453   1.486       .  S
C373        H375   1.083       .  S
N376        N377   1.323       .  A
N376        C380   1.346       .  A
N377        C378   1.345       .  A
C378        C379   1.382       .  A
C378        H381   1.081       .  S
C379        C380   1.383       .  A
C379        C397   1.485       .  S
C380        H382   1.081       .  S
O383       Cu391   2.022       .  S
O383        C393   1.280       .  A
O384       Cu391   2.011       .  S
O384        C394   1.278       .  A
O385       Cu391   2.006       .  S
O385        C395   1.277       .  A
O386       Cu391   2.003       .  S
O386        C396   1.277       .  A
O387       Cu392   2.019       .  S
O387        C396   1.280       .  A
O388       Cu392   2.023       .  S
O388        C395   1.280       .  A
O389       Cu392   2.008       .  S
O389        C394   1.276       .  A
O390       Cu392   2.001       .  S
O390        C393   1.276       .  A
Cu391      Cu392   2.367       .  S
C393        C495   1.505       .  S
C394        C484   1.479       .  S
C395        C400   1.487       .  S
C396        C414   1.502       .  S
C397        C398   1.412       .  A
C397        C402   1.413       .  A
C398        C399   1.411       .  A
C398        C403   1.452       .  S
C399        C400   1.413       .  A
C399        C406   1.448       .  S
C400        C401   1.415       .  A
C401        C402   1.412       .  A
C401        C404   1.451       .  S
C402        C405   1.451       .  S
C403        N410   1.157       .  T
C404        N409   1.157       .  T
C405        N407   1.157       .  T
C406        N408   1.156       .  T
C411        C412   1.414       .  A
C411        C416   1.414       .  A
C412        C413   1.411       .  A
C412        C417   1.453       .  S
C413        C414   1.420       .  A
C413        C420   1.451       .  S
C414        C415   1.420       .  A
C415        C416   1.414       .  A
C415        C418   1.452       .  S
C416        C419   1.452       .  S
C417        N424   1.157       .  T
C418        N423   1.157       .  T
C419        N421   1.157       .  T
C420        N422   1.157       .  T
C425        C426   1.409       .  A
C425        C430   1.407       .  A
C426        C427   1.416       .  A
C426        C431   1.453       .  S
C427        C428   1.424       .  A
C427        C434   1.446       .  S
C428        C429   1.422       .  A
C429        C430   1.407       .  A
C429        C432   1.451       .  S
C430        C433   1.453       .  S
C431        N438   1.157       .  T
C432        N437   1.157   1_455  T
C433        N435   1.157       .  T
C434        N436   1.157       .  T
C439        C440   1.421       .  A
C439        C444   1.422       .  A
C440        C441   1.416       .  A
C440        C445   1.447       .  S
C441        C442   1.409       .  A
C441        C448   1.452       .  S
C442        C443   1.406       .  A
C443        C444   1.405       .  A
C443        C446   1.454       .  S
C444        C447   1.452       .  S
C445        N452   1.157       .  T
C446        N451   1.157       .  T
C447        N449   1.157       .  T
C448        N450   1.157       .  T
C453        C454   1.410       .  A
C453        C458   1.407       .  A
C454        C455   1.416       .  A
C454        C459   1.452       .  S
C455        C456   1.422       .  A
C455        C462   1.447       .  S
C456        C457   1.422       .  A
C457        C458   1.407       .  A
C457        C460   1.451       .  S
C458        C461   1.453       .  S
C459        N466   1.157       .  T
C460        N465   1.157   1_655  T
C461        N463   1.157       .  T
C462        N464   1.157       .  T
C467        C468   1.405       .  A
C467        C472   1.407       .  A
C468        C469   1.407       .  A
C468        C473   1.453       .  S
C469        C470   1.423       .  A
C469        C476   1.450       .  S
C470        C471   1.424       .  A
C471        C472   1.416       .  A
C471        C474   1.447       .  S
C472        C475   1.452       .  S
C473        N480   1.157       .  T
C474        N479   1.157   1_556  T
C475        N477   1.157       .  T
C476        N478   1.157       .  T
C481        C482   1.412       .  A
C481        C486   1.412       .  A
C482        C483   1.411       .  A
C482        C487   1.451       .  S
C483        C484   1.412       .  A
C483        C490   1.452       .  S
C484        C485   1.411       .  A
C485        C486   1.411       .  A
C485        C488   1.451       .  S
C486        C489   1.451       .  S
C487        N494   1.157       .  T
C488        N493   1.157       .  T
C489        N491   1.157       .  T
C490        N492   1.157       .  T
C495        C496   1.420       .  A
C495        C500   1.422       .  A
C496        C497   1.413       .  A
C496        C501   1.450       .  S
C497        C498   1.415       .  A
C497        C504   1.452       .  S
C498        C499   1.414       .  A
C499        C500   1.412       .  A
C499        C502   1.453       .  S
C500        C503   1.452       .  S
C501        N508   1.157       .  T
C502        N507   1.158       .  T
C503        N505   1.158       .  T
C504        N506   1.157       .  T
C509        C510   1.423       .  A
C509        C514   1.424       .  A
C510        C511   1.407       .  A
C510        C515   1.451       .  S
C511        C512   1.405       .  A
C511        C518   1.454       .  S
C512        C513   1.408       .  A
C513        C514   1.417       .  A
C513        C516   1.452       .  S
C514        C517   1.447       .  S
C515        N522   1.157       .  T
C516        N521   1.157       .  T
C517        N519   1.157       .  T
C518        N520   1.157       .  T
C523        C524   1.409       .  A
C523        C528   1.406       .  A
C524        C525   1.417       .  A
C524        C529   1.452       .  S
C525        C526   1.423       .  A
C525        C532   1.447       .  S
C526        C527   1.423       .  A
C527        C528   1.407       .  A
C527        C530   1.450       .  S
C528        C531   1.454       .  S
C529        N536   1.157       .  T
C530        N535   1.157   1_545  T
C531        N533   1.157       .  T
C532        N534   1.157   1_556  T
C537        C538   1.405       .  A
C537        C542   1.408       .  A
C538        C539   1.407       .  A
C538        C543   1.453       .  S
C539        C540   1.423       .  A
C539        C546   1.451       .  S
C540        C541   1.423       .  A
C541        C542   1.417       .  A
C541        C544   1.447       .  S
C542        C545   1.452       .  S
C543        N550   1.157       .  T
C544        N549   1.157       .  T
C545        N547   1.157       .  T
C546        N548   1.157       .  T
C551        C552   1.410       .  A
C551        C556   1.406       .  A
C552        C553   1.416       .  A
C552        C557   1.452       .  S
C553        C554   1.423       .  A
C553        C560   1.447       .  S
C554        C555   1.423       .  A
C555        C556   1.408       .  A
C555        C558   1.451       .  S
C556        C559   1.453       .  S
C557        N564   1.157       .  T
C558        N563   1.157   1_565  T
C559        N561   1.157       .  T
C560        N562   1.157       .  T
