geometry optimzed in LAMMPS
_audit_creation_date              2020-11-30 
_audit_creation_method            'lammps2cif' 
_symmetry_space_group_name_H-M    'P1' 
_symmetry_Int_Tables_number       1 
_symmetry_cell_setting            triclinic 
loop_ 
_symmetry_equiv_pos_as_xyz 
  x,y,z 
_cell_length_a                    41.99429543 
_cell_length_b                    42.14456648987133 
_cell_length_c                    71.72178206856972 
_cell_angle_alpha                 89.67415681489199 
_cell_angle_beta                  90.39242098684872 
_cell_angle_gamma                 120.39519506569167 
loop_ 
_atom_site_label 
_atom_site_type_symbol 
_atom_site_fract_x 
_atom_site_fract_y 
_atom_site_fract_z 
_atom_site_charge 
O1          O  0.26984436  0.16673429  0.80832223    -0.78200
C2          C  0.28538537  0.07469564  0.80529900     0.82900
O3          O  0.28054718  0.13545861  0.87365319    -0.79300
O4          O  0.37310421  0.11511952  0.84524441    -0.80800
O5          O  0.40432977  0.22550832  0.81137764    -0.80600
O6          O  0.32292013  0.21982722  0.80681407    -0.79200
Zn7        Zn  0.27976304  0.13495724  0.82597560     1.55700
O8          O  0.40194551  0.17181822  0.80818720    -0.80600
Cd9        Cd  0.35626518  0.21223811  0.82523312     1.59700
Cd10       Cd  0.33369806  0.16174579  0.86257036     1.59600
O11         O  0.37024958  0.24896277  0.84687654    -0.80600
O12         O  0.33072408  0.16066086  0.83449047    -1.91100
Cd13       Cd  0.35597316  0.13566403  0.82374319     1.59900
O14         O  0.36060342  0.21584333  0.87269124    -0.80500
O15         O  0.32030383  0.09078723  0.80749021    -0.79200
C16         C  0.24901482  0.12185547  0.86571880     0.83300
C17         C  0.28943253  0.19922007  0.80181772     0.83000
O18         O  0.26675014  0.08801682  0.81218181    -0.78100
C19         C  0.41773519  0.20641985  0.80528251     0.83800
O20         O  0.24599278  0.12112933  0.84801178    -0.78200
C21         C  0.37179014  0.24675266  0.86455960     0.83900
C22         C  0.37323987  0.11656890  0.86299883     0.84300
O23         O  0.36055309  0.13413751  0.87174761    -0.80700
C24         C  0.16690246  0.32542974  0.73986673    -0.02200
C25         C  0.00028175  0.99761793  0.92823782    -0.02200
O26         O  0.43571897  0.48855321  0.52471688    -0.78200
C27         C  0.04998693  0.07975460  0.52989014     0.82900
O28         O  0.48187864  0.02625452  0.46259911    -0.79300
O29         O  0.09320701  0.03401113  0.48707426    -0.80800
O30         O  0.01069735  0.43115345  0.52422935    -0.80600
O31         O  0.43327493  0.43464646  0.52440644    -0.79200
Zn32       Zn  0.48204101  0.02181895  0.51034491     1.55700
O33         O  0.06409147  0.48412375  0.52583344    -0.80600
Cd34       Cd  0.47870667  0.44580510  0.50822054     1.59700
Cd35       Cd  0.50418603  0.49920263  0.47065642     1.59600
O36         O  0.46031950  0.41007651  0.48574699    -0.80600
O37         O  0.50442576  0.49772608  0.49881292    -1.91100
Cd38       Cd  0.05650263  0.02085573  0.50861682     1.59900
O39         O  0.47560415  0.44553367  0.46037496    -0.80500
O40         O  0.07013680  0.06785133  0.52343223    -0.79200
C41         C  0.46710162  0.04179282  0.47139472     0.83300
C42         C  0.42025026  0.45478162  0.52946755     0.83000
O43         O  0.01552938  0.06379063  0.52625974    -0.78100
C44         C  0.04387445  0.45026848  0.53010765     0.83800
O45         O  0.46651305  0.04190688  0.48912853    -0.78200
C46         C  0.46069205  0.41379390  0.46804588     0.83900
C47         C  0.09075808  0.03280971  0.46936191     0.84300
O48         O  0.05975439  0.02096679  0.46103000    -0.80700
C49         C  0.34170355  0.16529626  0.40536385    -0.02200
C50         C  0.16886665  0.32634564  0.59462342    -0.02200
O51         O  0.23326023  0.39571941  0.14090639    -0.78200
C52         C  0.11898311  0.37414815  0.13570367     0.82900
O53         O  0.19278188  0.39179404  0.20402159    -0.79300
O54         O  0.07560062  0.28827176  0.18021414    -0.80800
O55         O  0.15736117  0.26757517  0.14118658    -0.80600
O56         O  0.23797728  0.34584481  0.14440714    -0.79200
Zn57       Zn  0.18848248  0.38567584  0.15633826     1.55700
O58         O  0.10296797  0.26477549  0.14191155    -0.80600
Cd59       Cd  0.19039696  0.31071153  0.15879107     1.59700
Cd60       Cd  0.16402991  0.33727716  0.19532356     1.59600
O61         O  0.20570791  0.29051803  0.18127964    -0.80600
O62         O  0.16413283  0.33641962  0.16721076    -1.91100
Cd63       Cd  0.11203484  0.30864645  0.15819379     1.59900
O64         O  0.19018662  0.31011457  0.20647640    -0.80500
O65         O  0.09947313  0.34140785  0.14183128    -0.79200
C66         C  0.20801967  0.42212012  0.19498566     0.83300
C67         C  0.25017816  0.37819473  0.13799576     0.83000
O68         O  0.15311343  0.39379041  0.14004377    -0.78100
C69         C  0.12357731  0.25273681  0.13629499     0.83800
O70         O  0.20743182  0.42279454  0.17719368    -0.78200
C71         C  0.20459741  0.29293139  0.19895616     0.83900
C72         C  0.07858017  0.29204518  0.19787558     0.84300
O73         O  0.10996479  0.31114345  0.20586560    -0.80700
C74         C  0.00302899  0.00819689  0.07176238    -0.02200
C75         C  0.32758486  0.16623122  0.26193931    -0.02200
C76         C  0.32760195  0.44086443  0.10482382    -0.27300
C77         C  0.35295732  0.42892130  0.10770636     0.02300
C78         C  0.34437518  0.40024597  0.12046037     0.30400
C79         C  0.31072172  0.38383781  0.13004494    -0.19100
C80         C  0.28521065  0.39577343  0.12725259    -0.28500
C81         C  0.29401967  0.42463309  0.11447022     0.44400
C82         C  0.38923340  0.44824770  0.09821689     0.05600
O83         O  0.36962928  0.38959155  0.12442452    -0.57000
H84         H  0.30498092  0.36220875  0.14002542     0.18600
O85         O  0.26964148  0.43654362  0.11089378    -0.63700
H86         H  0.33399242  0.46303522  0.09508574     0.17000
C87         C  0.39996623  0.43024735  0.08553591     0.29300
C88         C  0.43483898  0.44933236  0.07717368    -0.24600
C89         C  0.46015182  0.48691073  0.08098501    -0.23900
C90         C  0.44907495  0.50429620  0.09448891     0.40700
C91         C  0.41386368  0.48504120  0.10251234    -0.26400
O92         O  0.37621925  0.39415693  0.08094430    -0.58200
H93         H  0.44247491  0.43442225  0.06767252     0.16300
O94         O  0.47526351  0.03688721  0.10369318    -0.59700
H95         H  0.40629925  0.49863793  0.11288926     0.14800
H96         H  0.27837387  0.45894245  0.11859503     0.46700
H97         H  0.38687776  0.38014083  0.08673343     0.42000
H98         H  0.46397088  0.05257098  0.10250974     0.45500
H99         H  0.35912117  0.36460148  0.11905970     0.37000
C100        C  0.03333037  0.11076035  0.07914281    -0.27300
C101        C  0.06484777  0.12306306  0.09035274     0.02300
C102        C  0.07956290  0.10005056  0.09320117     0.30400
C103        C  0.06111358  0.06428326  0.08619759    -0.19100
C104        C  0.02653443  0.04963665  0.07705546    -0.28500
C105        C  0.01457165  0.07471596  0.07220098     0.44400
C106        C  0.07974819  0.15806990  0.10066947     0.05600
O107        O  0.11037060  0.11119095  0.10413095    -0.57000
H108        H  0.07418434  0.04816302  0.08845525     0.18600
O109        O  0.48286385  0.06271163  0.06101243    -0.63700
H110        H  0.02239096  0.12873719  0.07635454     0.17000
C111        C  0.11712369  0.18577288  0.09946244     0.29300
C112        C  0.13095598  0.21671428  0.11101359    -0.24600
C113        C  0.10788804  0.22059742  0.12374622    -0.23900
C114        C  0.07015490  0.19343060  0.12441071     0.40700
C115        C  0.05646821  0.16242693  0.11300154    -0.26400
O116        O  0.13989935  0.18322651  0.08666702    -0.58200
H117        H  0.15982506  0.23775517  0.10997837     0.16300
O118        O  0.04685804  0.19580359  0.13690515    -0.59700
H119        H  0.02772597  0.14109395  0.11420020     0.14800
H120        H  0.46415669  0.06319663  0.06916499     0.46700
H121        H  0.15966915  0.18260196  0.09402478     0.42000
H122        H  0.03365517  0.20578475  0.12966278     0.45500
H123        H  0.12981521  0.11332352  0.09556763     0.37000
C124        C  0.04838618  0.38397457  0.10611319    -0.27300
C125        C  0.06675127  0.42205187  0.10325064     0.02300
C126        C  0.10321695  0.44392050  0.10975390     0.30400
C127        C  0.12025321  0.42790799  0.11978802    -0.19100
C128        C  0.10138123  0.38990204  0.12356171    -0.28500
C129        C  0.06536697  0.36779562  0.11610926     0.44400
C130        C  0.04679178  0.43946628  0.09515217     0.05600
O131        O  0.12200793  0.48124485  0.10688835    -0.57000
H132        H  0.14796935  0.44555975  0.12508197     0.18600
O133        O  0.04597384  0.33047302  0.11891816    -0.63700
H134        H  0.02031122  0.36688563  0.10113087     0.17000
C135        C  0.03635701  0.43545887  0.07630747     0.29300
C136        C  0.02021797  0.45496984  0.06893278    -0.24600
C137        C  0.01466803  0.47951298  0.08004564    -0.23900
C138        C  0.02143515  0.47955856  0.09954449     0.40700
C139        C  0.03812977  0.46053076  0.10670607    -0.26400
O140        O  0.04182530  0.41256981  0.06496555    -0.58200
H141        H  0.01199072  0.45037564  0.05444071     0.16300
O142        O  0.01206329  0.49844568  0.11175128    -0.59700
H143        H  0.04447935  0.46233871  0.12147257     0.14800
H144        H  0.05168186  0.31992779  0.10799237     0.46700
H145        H  0.06692298  0.42813080  0.05976337     0.42000
H146        H  0.53226256  0.51892630  0.11891861     0.45500
H147        H  0.13256683  0.48477376  0.09420449     0.37000
C148        C  0.25470911  0.19626684  0.25350424    -0.27300
C149        C  0.27456687  0.22791419  0.24255872     0.02300
C150        C  0.31284308  0.24328421  0.24086580     0.30400
C151        C  0.33012093  0.22517788  0.24847902    -0.19100
C152        C  0.30953526  0.18996211  0.25684818    -0.28500
C153        C  0.27203350  0.17793698  0.26107726     0.44400
C154        C  0.25519857  0.24337513  0.23177235     0.05600
O155        O  0.33363162  0.27611734  0.23170005    -0.57000
H156        H  0.35976457  0.23878733  0.24714949     0.18600
O157        O  0.25114836  0.14643181  0.27119757    -0.63700
H158        H  0.22534241  0.18479760  0.25551581     0.17000
C159        C  0.25502693  0.24240158  0.21217362     0.29300
C160        C  0.23829006  0.25831189  0.20187783    -0.24600
C161        C  0.22109946  0.27545020  0.21072609    -0.23900
C162        C  0.22068893  0.27576895  0.23046797     0.40700
C163        C  0.23740767  0.25954616  0.24079915    -0.26400
O164        O  0.27139612  0.22603212  0.20289405    -0.58200
H165        H  0.23905875  0.25730572  0.18680922     0.16300
O166        O  0.20395172  0.29161233  0.23985653    -0.59700
H167        H  0.23711924  0.26023506  0.25589214     0.14800
H168        H  0.25001553  0.15493162  0.28390999     0.46700
H169        H  0.25246060  0.19952055  0.20245280     0.42000
H170        H  0.22394930  0.31712315  0.24250503     0.45500
H171        H  0.34002932  0.26966311  0.21956339     0.37000
C172        C  0.24824449  0.49360200  0.23389671    -0.27300
C173        C  0.25787526  0.02190308  0.22485540     0.02300
C174        C  0.25799193  0.02184657  0.20525496     0.30400
C175        C  0.24103709  0.49085371  0.19512402    -0.19100
C176        C  0.22688482  0.45771740  0.20521684    -0.28500
C177        C  0.23121689  0.45948003  0.22482780     0.44400
C178        C  0.27356041  0.05702811  0.23520712     0.05600
O179        O  0.27486009  0.05437554  0.19549891    -0.57000
H180        H  0.23895021  0.49059415  0.18005719     0.18600
O181        O  0.21950795  0.42820701  0.23529736    -0.63700
H182        H  0.25095226  0.49443350  0.24894839     0.17000
C183        C  0.25928056  0.08047527  0.23259103     0.29300
C184        C  0.27655501  0.11525248  0.24082266    -0.24600
C185        C  0.30716786  0.12703649  0.25300356    -0.23900
C186        C  0.32089625  0.10253607  0.25575262     0.40700
C187        C  0.30413597  0.06814830  0.24691283    -0.26400
O188        O  0.22866809  0.06990977  0.22161157    -0.58200
H189        H  0.26602452  0.13292341  0.23689903     0.16300
O190        O  0.35161049  0.11259578  0.26660205    -0.59700
H191        H  0.31563092  0.05041968  0.24889832     0.14800
H192        H  0.19467909  0.42172377  0.23984253     0.46700
H193        H  0.20732618  0.05547394  0.22996507     0.42000
H194        H  0.34295065  0.09596500  0.27757722     0.45500
H195        H  0.25451482  0.05652015  0.18970531     0.37000
C196        C  0.40794134  0.20521882  0.22618109    -0.27300
C197        C  0.43929204  0.21586315  0.23729955     0.02300
C198        C  0.43459761  0.20948285  0.25663501     0.30400
C199        C  0.39931118  0.19373874  0.26456200    -0.19100
C200        C  0.36748790  0.18406492  0.25357482    -0.28500
C201        C  0.37259922  0.18892062  0.23393436     0.44400
C202        C  0.47642756  0.23312166  0.22836992     0.05600
O203        O  0.46424272  0.21767796  0.26794228    -0.57000
H204        H  0.39733295  0.18800206  0.27932031     0.18600
O205        O  0.34288566  0.17742685  0.22211761    -0.63700
H206        H  0.41074830  0.20973828  0.21125111     0.17000
C207        C  0.48198954  0.21795288  0.21208765     0.29300
C208        C  0.01515777  0.23899573  0.20254465    -0.24600
C209        C  0.04421405  0.27271080  0.20907753    -0.23900
C210        C  0.03920510  0.28738243  0.22569142     0.40700
C211        C  0.00496364  0.26926064  0.23488722    -0.26400
O212        O  0.45457113  0.18505238  0.20513213    -0.58200
H213        H  0.01858328  0.22676693  0.19002621     0.16300
O214        O  0.06673762  0.32039594  0.23245632    -0.59700
H215        H  0.00106179  0.28186988  0.24711042     0.14800
H216        H  0.34596345  0.19992665  0.21593992     0.46700
H217        H  0.45701167  0.16594903  0.21205444     0.42000
H218        H  0.07978413  0.31390761  0.24194707     0.45500
H219        H  0.46670295  0.19549280  0.26767580     0.37000
C220        C  0.30866728  0.13369335  0.31420063    -0.27300
C221        C  0.33182621  0.16666577  0.32342182     0.02300
C222        C  0.35076335  0.19922592  0.31303487     0.30400
C223        C  0.34806157  0.19817869  0.29354870    -0.19100
C224        C  0.32731008  0.16467988  0.28373911    -0.28500
C225        C  0.30546369  0.13235023  0.29466814     0.44400
C226        C  0.33522685  0.16688238  0.34397908     0.05600
O227        O  0.37274891  0.23217112  0.32179885    -0.57000
H228        H  0.36334091  0.22378445  0.28591464     0.18600
O229        O  0.27834269  0.10024385  0.28680997    -0.63700
H230        H  0.29228681  0.10882041  0.32225993     0.17000
C231        C  0.31451123  0.17658535  0.35532490     0.29300
C232        C  0.31793544  0.17635521  0.37473270    -0.24600
C233        C  0.34123780  0.16547608  0.38356550    -0.23900
C234        C  0.36390160  0.15803350  0.37173335     0.40700
C235        C  0.35976927  0.15775365  0.35225940    -0.26400
O236        O  0.29073781  0.18633411  0.34755901    -0.58200
H237        H  0.30127592  0.18374176  0.38308243     0.16300
O238        O  0.39112318  0.15234574  0.37867512    -0.59700
H239        H  0.37664270  0.15125589  0.34351499     0.14800
H240        H  0.28363245  0.08073085  0.29069417     0.46700
H241        H  0.26710298  0.16286913  0.34590314     0.42000
H242        H  0.41482697  0.17374024  0.37456337     0.45500
H243        H  0.35631541  0.24215087  0.32435874     0.37000
C244        C  0.18934196  0.06056384  0.45678439    -0.27300
C245        C  0.19400815  0.07863034  0.43965206     0.02300
C246        C  0.16323838  0.07847600  0.43145758     0.30400
C247        C  0.12919799  0.06200803  0.44079191    -0.19100
C248        C  0.12530633  0.04600224  0.45849186    -0.28500
C249        C  0.15559936  0.04449767  0.46618166     0.44400
C250        C  0.23138230  0.09879754  0.43096232     0.05600
O251        O  0.16644921  0.09554103  0.41466280    -0.57000
H252        H  0.10629464  0.06323186  0.43452872     0.18600
O253        O  0.15275351  0.02773819  0.48304184    -0.63700
H254        H  0.21220278  0.05929565  0.46307756     0.17000
C255        C  0.26259967  0.12348456  0.44143634     0.29300
C256        C  0.29732275  0.14258781  0.43305330    -0.24600
C257        C  0.30215467  0.14015762  0.41370862    -0.23900
C258        C  0.27103109  0.11255972  0.40367437     0.40700
C259        C  0.23623143  0.09307056  0.41221668    -0.26400
O260        O  0.25943699  0.13002344  0.45985273    -0.58200
H261        H  0.32055873  0.16121220  0.44165287     0.16300
O262        O  0.27407750  0.10292544  0.38583077    -0.59700
H263        H  0.21295983  0.07268295  0.40417976     0.14800
H264        H  0.14330626  0.00150335  0.48004760     0.46700
H265        H  0.25420002  0.15048327  0.45977346     0.42000
H266        H  0.27373224  0.07929219  0.38698618     0.45500
H267        H  0.17496418  0.12152861  0.41779173     0.37000
C268        C  0.42395003  0.34852449  0.42619293    -0.27300
C269        C  0.40865302  0.31424196  0.43509788     0.02300
C270        C  0.41114291  0.31282038  0.45460050     0.30400
C271        C  0.42828524  0.34532553  0.46499076    -0.19100
C272        C  0.44320443  0.37995692  0.45628127    -0.28500
C273        C  0.44110757  0.38124740  0.43658983     0.44400
C274        C  0.39018354  0.27966148  0.42423293     0.05600
O275        O  0.39796724  0.27966139  0.46356025    -0.57000
H276        H  0.42984659  0.34320838  0.47998893     0.18600
O277        O  0.45510355  0.41415380  0.42732849    -0.63700
H278        H  0.42229906  0.34989361  0.41115391     0.17000
C279        C  0.35209851  0.25537142  0.42592406     0.29300
C280        C  0.33602390  0.21989223  0.41849026    -0.24600
C281        C  0.35780926  0.20679881  0.41033428    -0.23900
C282        C  0.39512501  0.23350528  0.40622966     0.40700
C283        C  0.41103908  0.26933824  0.41341558    -0.26400
O284        O  0.33037195  0.26622327  0.43483905    -0.58200
H285        H  0.30642232  0.20268596  0.41961159     0.16300
O286        O  0.41672640  0.22429491  0.39599423    -0.59700
H287        H  0.44021626  0.28844270  0.41136239     0.14800
H288        H  0.48055983  0.42084447  0.42380942     0.46700
H289        H  0.32308501  0.25232484  0.44674830     0.42000
H290        H  0.43554486  0.22520276  0.40474761     0.45500
H291        H  0.37501103  0.27498798  0.46982729     0.37000
C292        C  0.40740511  0.14789851  0.43747437    -0.27300
C293        C  0.40007020  0.11347228  0.43122515     0.02300
C294        C  0.37356124  0.09581636  0.41715378     0.30400
C295        C  0.35553740  0.11306568  0.40928708    -0.19100
C296        C  0.36445957  0.14907425  0.41440255    -0.28500
C297        C  0.38955394  0.16539585  0.42968400     0.44400
C298        C  0.41726282  0.09475419  0.44106961     0.05600
O299        O  0.36337012  0.06070610  0.41182868    -0.57000
H300        H  0.33461121  0.09827422  0.39879312     0.18600
O301        O  0.39368358  0.19589238  0.43872960    -0.63700
H302        H  0.42623229  0.16083335  0.44908193     0.17000
C303        C  0.43872398  0.08288598  0.43167487     0.29300
C304        C  0.45461025  0.06546629  0.44158837    -0.24600
C305        C  0.44980547  0.05996572  0.46098547    -0.23900
C306        C  0.42816867  0.07199869  0.47028629     0.40700
C307        C  0.41243688  0.08930105  0.46035724    -0.26400
O308        O  0.44482830  0.08869160  0.41288106    -0.58200
H309        H  0.47109073  0.05666875  0.43408199     0.16300
O310        O  0.42204766  0.06708045  0.48912448    -0.59700
H311        H  0.39595486  0.09822362  0.46778337     0.14800
H312        H  0.42046272  0.21431245  0.43853139     0.46700
H313        H  0.46706221  0.11348779  0.41172743     0.42000
H314        H  0.38790487  0.53113457  0.48841298     0.45500
H315        H  0.37414642  0.06323746  0.39926709     0.37000
C316        C  0.26789802  0.40401305  0.57985210    -0.27300
C317        C  0.28007114  0.38529718  0.56854066     0.02300
C318        C  0.25586307  0.34779819  0.56502587     0.30400
C319        C  0.22087402  0.32937463  0.57317249    -0.19100
C320        C  0.20870367  0.34698192  0.58570267    -0.28500
C321        C  0.23258781  0.38572014  0.58789417     0.44400
C322        C  0.31728373  0.40504429  0.55972349     0.05600
O323        O  0.26566904  0.32888483  0.55308363    -0.57000
H324        H  0.20326934  0.30146771  0.56863810     0.18600
O325        O  0.22183177  0.40605982  0.59816471    -0.63700
H326        H  0.28579492  0.43314761  0.58242871     0.17000
C327        C  0.32881821  0.43721007  0.54903666     0.29300
C328        C  0.36287679  0.45376368  0.53980859    -0.24600
C329        C  0.38580686  0.43840134  0.54069831    -0.23900
C330        C  0.37467927  0.40678803  0.55182423     0.40700
C331        C  0.34083977  0.39052175  0.56121519    -0.26400
O332        O  0.30646420  0.45200008  0.54695107    -0.58200
H333        H  0.37071191  0.47798752  0.53135461     0.16300
O334        O  0.39650047  0.39133342  0.55356323    -0.59700
H335        H  0.33275733  0.36613845  0.56958080     0.14800
H336        H  0.21625057  0.42016915  0.58891227     0.46700
H337        H  0.28977681  0.43844930  0.53638995     0.42000
H338        H  0.41342754  0.40445010  0.56411518     0.45500
H339        H  0.25807309  0.33261146  0.54052491     0.37000
C340        C  0.09601099  0.23251663  0.57178362    -0.27300
C341        C  0.11285706  0.21161209  0.57458695     0.02300
C342        C  0.14466631  0.22583661  0.58581209     0.30400
C343        C  0.16056697  0.26164222  0.59292367    -0.19100
C344        C  0.14655253  0.28500214  0.58821628    -0.28500
C345        C  0.11146168  0.26807477  0.57890636     0.44400
C346        C  0.09764624  0.17592697  0.56482581     0.05600
O347        O  0.16098503  0.20534421  0.58951465    -0.57000
H348        H  0.18554083  0.27222064  0.60121979     0.18600
O349        O  0.09076904  0.28476739  0.57720347    -0.63700
H350        H  0.07058108  0.22128951  0.56380473     0.17000
C351        C  0.06024976  0.14850728  0.56667174     0.29300
C352        C  0.04511596  0.11735116  0.55525725    -0.24600
C353        C  0.06690116  0.11273253  0.54198960    -0.23900
C354        C  0.10458505  0.13988794  0.54045466     0.40700
C355        C  0.11964809  0.17105004  0.55187054    -0.26400
O356        O  0.03811819  0.15226060  0.57937727    -0.58200
H357        H  0.01622142  0.09671665  0.55681512     0.16300
O358        O  0.12668058  0.13698089  0.52739572    -0.59700
H359        H  0.14827273  0.19225394  0.55004842     0.14800
H360        H  0.07075032  0.27266803  0.58652016     0.46700
H361        H  0.04051836  0.14074109  0.59099261     0.42000
H362        H  0.12389612  0.14882243  0.51600191     0.45500
H363        H  0.14764460  0.19000271  0.60047428     0.37000
C364        C  0.10636576  0.43605929  0.56352498    -0.27300
C365        C  0.09381902  0.39861286  0.56096795     0.02300
C366        C  0.06312961  0.37764451  0.54930794     0.30400
C367        C  0.04616006  0.39449857  0.53993771    -0.19100
C368        C  0.05985575  0.43245419  0.54170825    -0.28500
C369        C  0.08990418  0.45311098  0.55389197     0.44400
C370        C  0.11397428  0.38207205  0.56984861     0.05600
O371        O  0.04926233  0.34055662  0.54724700    -0.57000
H372        H  0.02296567  0.37798944  0.53078952     0.18600
O373        O  0.10303923  0.48985728  0.55673224    -0.63700
H374        H  0.12974043  0.45238694  0.57260822     0.17000
C375        C  0.13118827  0.36770698  0.55888499     0.29300
C376        C  0.14914818  0.35118181  0.56734169    -0.24600
C377        C  0.15026901  0.34780604  0.58699216    -0.23900
C378        C  0.13533437  0.36525585  0.59796956     0.40700
C379        C  0.11727189  0.38184930  0.58927884    -0.26400
O380        O  0.13050697  0.36952696  0.53979592    -0.58200
H381        H  0.16117387  0.33943945  0.55838423     0.16300
O382        O  0.13991232  0.36848180  0.61694798    -0.59700
H383        H  0.10559770  0.39453848  0.59781693     0.14800
H384        H  0.12541465  0.50284552  0.54887201     0.46700
H385        H  0.15154174  0.39411631  0.53652281     0.42000
H386        H  0.11468387  0.35556908  0.62229395     0.45500
H387        H  0.05598668  0.33747259  0.53443142     0.37000
C388        C  0.49283403  0.46728341  0.98168463    -0.27300
C389        C  0.00000569  0.00511499  0.98961917     0.02300
C390        C  0.01327603  0.03630439  0.97821476     0.30400
C391        C  0.01300544  0.03272311  0.95882325    -0.19100
C392        C  0.99934907  0.99807230  0.95006249    -0.28500
C393        C  0.49418067  0.46495782  0.96223181     0.44400
C394        C  0.00048556  0.00805735  0.01018152     0.05600
O395        O  0.02669573  0.07049462  0.98590441    -0.57000
H396        H  0.02314377  0.05739779  0.95043213     0.18600
O397        O  0.48829810  0.43239006  0.95493524    -0.63700
H398        H  0.48524879  0.44306637  0.99011025     0.17000
C399        C  0.46776723  0.48942610  0.02028248     0.29300
C400        C  0.46705440  0.49015708  0.03980317    -0.24600
C401        C  0.00169763  0.00837281  0.04991694    -0.23900
C402        C  0.03494296  0.02391812  0.03938878     0.40700
C403        C  0.03398637  0.02318198  0.01985182    -0.26400
O404        O  0.43545174  0.47647490  0.01042319    -0.58200
H405        H  0.44079729  0.48191365  0.04618764     0.16300
O406        O  0.06861934  0.03850796  0.04811531    -0.59700
H407        H  0.05958788  0.03390422  0.01220558     0.14800
H408        H  0.50912270  0.42951568  0.95937298     0.46700
H409        H  0.43362081  0.49853576  0.00751103     0.42000
H410        H  0.08032197  0.06553303  0.04657691     0.45500
H411        H  0.00549672  0.07471000  0.98589990     0.37000
C412        C  0.20123619  0.33493863  0.68866382    -0.27300
C413        C  0.16964376  0.32557312  0.67784379     0.02300
C414        C  0.13670445  0.31608688  0.68750311     0.30400
C415        C  0.13522996  0.31330757  0.70697648    -0.19100
C416        C  0.16736337  0.32541374  0.71798309    -0.28500
C417        C  0.20089639  0.33694770  0.70817479     0.44400
C418        C  0.17094047  0.32515375  0.65677910     0.05600
O419        O  0.10550117  0.31009781  0.67820748    -0.57000
H420        H  0.10830905  0.30223409  0.71300457     0.18600
O421        O  0.23391901  0.35106502  0.71754219    -0.63700
H422        H  0.22680082  0.34084341  0.68219989     0.17000
C423        C  0.20285910  0.34925951  0.64649764     0.29300
C424        C  0.20282303  0.34732369  0.62694509    -0.24600
C425        C  0.17016256  0.32526202  0.61654775    -0.23900
C426        C  0.13814012  0.30136238  0.62711752     0.40700
C427        C  0.13961607  0.29994149  0.64659811    -0.26400
O428        O  0.23385261  0.37646078  0.65519156    -0.58200
H429        H  0.22898387  0.36445174  0.62035731     0.16300
O430        O  0.10496664  0.27843578  0.61863306    -0.59700
H431        H  0.11532988  0.27895159  0.65365791     0.14800
H432        H  0.24153933  0.33240277  0.71631262     0.46700
H433        H  0.25343099  0.37028135  0.65312247     0.42000
H434        H  0.08952222  0.28973434  0.62073511     0.45500
H435        H  0.10893839  0.33491300  0.67607779     0.37000
C436        C  0.47977039  0.41044687  0.89834339    -0.27300
C437        C  0.44378763  0.38568965  0.90412865     0.02300
C438        C  0.42760818  0.39664621  0.91774865     0.30400
C439        C  0.44738880  0.43208335  0.92527873    -0.19100
C440        C  0.48450303  0.45723608  0.92024378    -0.28500
C441        C  0.50011633  0.44581235  0.90598684     0.44400
C442        C  0.42263780  0.34969825  0.89461359     0.05600
O443        O  0.39215468  0.37318786  0.92353362    -0.57000
H444        H  0.43373505  0.43998135  0.93545228     0.18600
O445        O  0.03220594  0.46950771  0.89706633    -0.63700
H446        H  0.49195753  0.40262222  0.88731926     0.17000
C447        C  0.41469163  0.34832909  0.87548535     0.29300
C448        C  0.39727339  0.31461922  0.86615919    -0.24600
C449        C  0.38761914  0.28151279  0.87554925    -0.23900
C450        C  0.39437393  0.28285532  0.89497095     0.40700
C451        C  0.41184628  0.31680974  0.90431532    -0.26400
O452        O  0.42344074  0.37991053  0.86583572    -0.58200
H453        H  0.39185473  0.31465722  0.85137474     0.16300
O454        O  0.38526479  0.25148622  0.90487149    -0.59700
H455        H  0.41779888  0.31756712  0.91908329     0.14800
H456        H  0.04747966  0.45783686  0.89877624     0.46700
H457        H  0.44644012  0.38646779  0.85901841     0.42000
H458        H  0.36054168  0.24344445  0.91013740     0.45500
H459        H  0.37628783  0.37763535  0.91488382     0.37000
C460        C  0.14855909  0.08084897  0.88002312    -0.27300
C461        C  0.15049804  0.07769483  0.89941138     0.02300
C462        C  0.18495055  0.08856374  0.90775686     0.30400
C463        C  0.21681045  0.10284258  0.89671320    -0.19100
C464        C  0.21494294  0.10645016  0.87724025    -0.28500
C465        C  0.18011550  0.09502858  0.86898472     0.44400
C466        C  0.11585475  0.06238956  0.91033524     0.05600
O467        O  0.18785853  0.08563335  0.92666482    -0.57000
H468        H  0.24302882  0.11112837  0.90344932     0.18600
O469        O  0.17644444  0.09821630  0.85015333    -0.63700
H470        H  0.12218115  0.07192998  0.87330004     0.17000
C471        C  0.09218023  0.07655362  0.90794646     0.29300
C472        C  0.05626143  0.05734544  0.91491816    -0.24600
C473        C  0.04217873  0.02253495  0.92357610    -0.23900
C474        C  0.06839619  0.01222742  0.92886012     0.40700
C475        C  0.10442756  0.03135338  0.92171391    -0.26400
O476        O  0.10403781  0.10929595  0.89875021    -0.58200
H477        H  0.03954176  0.06990404  0.91300714     0.16300
O478        O  0.05850178  0.47687325  0.93706398    -0.59700
H479        H  0.12267627  0.02059830  0.92420124     0.14800
H480        H  0.16928334  0.07372916  0.84493404     0.46700
H481        H  0.09010397  0.10278692  0.88680931     0.42000
H482        H  0.06897266  0.48439977  0.94978575     0.45500
H483        H  0.19109943  0.10883642  0.93187302     0.37000
C484        C  0.45893688  0.03198324  0.89181760    -0.27300
C485        C  0.43748494  0.04176555  0.90254049     0.02300
C486        C  0.43316591  0.03293381  0.92165093     0.30400
C487        C  0.45243313  0.01726324  0.92993928    -0.19100
C488        C  0.47701825  0.01053720  0.91957715    -0.28500
C489        C  0.47732388  0.01545008  0.89992181     0.44400
C490        C  0.41919956  0.06017356  0.89327889     0.05600
O491        O  0.40864176  0.03768832  0.93211722    -0.57000
H492        H  0.44728438  0.00999912  0.94451994     0.18600
O493        O  0.99686278  0.00929164  0.88819820    -0.63700
H494        H  0.46190553  0.03756485  0.87696995     0.17000
C495        C  0.42214354  0.09273435  0.90042793     0.29300
C496        C  0.40610376  0.11027207  0.89079204    -0.24600
C497        C  0.38826106  0.09670820  0.87359386    -0.23900
C498        C  0.38549972  0.06428488  0.86642336     0.40700
C499        C  0.40058693  0.04626958  0.87628322    -0.26400
O500        O  0.44185252  0.10853135  0.91640825    -0.58200
H501        H  0.40886786  0.13534121  0.89644060     0.16300
O502        O  0.36809838  0.04985219  0.84973854    -0.59700
H503        H  0.39793179  0.02133350  0.87050898     0.14800
H504        H  0.97800510  0.98713424  0.88145489     0.46700
H505        H  0.46794288  0.12331615  0.91239254     0.42000
H506        H  0.34162202  0.03396266  0.85286689     0.45500
H507        H  0.42362930  0.05577277  0.94190364     0.37000
C508        C  0.27836347  0.26101018  0.76679544    -0.27300
C509        C  0.24001970  0.24622499  0.76696804     0.02300
C510        C  0.21773961  0.21351078  0.77697455     0.30400
C511        C  0.23407800  0.19742970  0.78753080    -0.19100
C512        C  0.27269845  0.21384775  0.78854834    -0.28500
C513        C  0.29479582  0.24535368  0.77756015     0.44400
C514        C  0.22407147  0.26736811  0.75855569     0.05600
O515        O  0.18009932  0.19804697  0.77730479    -0.57000
H516        H  0.21646038  0.17304506  0.79566621     0.18600
O517        O  0.33248655  0.26116869  0.77723083    -0.63700
H518        H  0.29580015  0.28571486  0.75882497     0.17000
C519        C  0.23717499  0.30390368  0.76400655     0.29300
C520        C  0.22046039  0.32303697  0.75722364    -0.24600
C521        C  0.18849707  0.30577672  0.74581532    -0.23900
C522        C  0.17710846  0.26961551  0.73937657     0.40700
C523        C  0.19477520  0.25088525  0.74579462    -0.26400
O524        O  0.26588641  0.32105477  0.77645054    -0.58200
H525        H  0.23307271  0.35148226  0.76126381     0.16300
O526        O  0.14801046  0.25202286  0.72717246    -0.59700
H527        H  0.18497023  0.22303673  0.74110330     0.14800
H528        H  0.34204673  0.28268689  0.78566443     0.46700
H529        H  0.25428299  0.31445863  0.78894215     0.42000
H530        H  0.12715931  0.23323163  0.73467089     0.45500
H531        H  0.17521419  0.21068896  0.78755742     0.37000
C532        C  0.51150733  0.27915461  0.78671225    -0.27300
C533        C  0.01789066  0.25765473  0.77287720     0.02300
C534        C  0.49223338  0.22143446  0.77093801     0.30400
C535        C  0.45956292  0.20475944  0.78125994    -0.19100
C536        C  0.45246119  0.22491672  0.79444053    -0.28500
C537        C  0.47884492  0.26251835  0.79709534     0.44400
C538        C  0.05489532  0.27436048  0.76421542     0.05600
O539        O  0.99998804  0.19837063  0.75959393    -0.57000
H540        H  0.43967479  0.17596224  0.77889978     0.18600
O541        O  0.47361322  0.28300247  0.81020762    -0.63700
H542        H  0.02878721  0.30789150  0.78632002     0.17000
C543        C  0.06831252  0.30484869  0.75225206     0.29300
C544        C  0.10389392  0.32030375  0.74480750    -0.24600
C545        C  0.12691182  0.30528780  0.74838347    -0.23900
C546        C  0.11363114  0.27620044  0.76190962     0.40700
C547        C  0.07786480  0.26058190  0.76897206    -0.26400
O548        O  0.04690600  0.31984535  0.74775955    -0.58200
H549        H  0.11363843  0.34433022  0.73594471     0.16300
O550        O  0.13544771  0.26399360  0.76961937    -0.59700
H551        H  0.06854638  0.23836591  0.77903131     0.14800
H552        H  0.48391710  0.27927775  0.82194828     0.46700
H553        H  0.03361887  0.30709783  0.73619812     0.42000
H554        H  0.14544972  0.27820428  0.78130324     0.45500
H555        H  0.99356626  0.20247300  0.74681959     0.37000
C556        C  0.21131315  0.98082417  0.78711378    -0.27300
C557        C  0.23452196  0.47173788  0.77464962     0.02300
C558        C  0.26786413  0.48359499  0.78430020     0.30400
C559        C  0.28652800  0.03075692  0.78234056    -0.19100
C560        C  0.26621699  0.03964405  0.79461021    -0.28500
C561        C  0.22807426  0.01434259  0.79676623     0.44400
C562        C  0.21556866  0.43526910  0.76559752     0.05600
O563        O  0.28403132  0.46230075  0.78467498    -0.57000
H564        H  0.31575072  0.04967637  0.78032654     0.18600
O565        O  0.20718952  0.02125198  0.80888562    -0.63700
H566        H  0.18215587  0.96158300  0.78912198     0.17000
C567        C  0.20050373  0.40309282  0.77634193     0.29300
C568        C  0.18536495  0.36892119  0.76764967    -0.24600
C569        C  0.18486648  0.36533818  0.74797858    -0.23900
C570        C  0.19773720  0.39830794  0.73728929     0.40700
C571        C  0.21341086  0.43258581  0.74617543    -0.26400
O572        O  0.20075065  0.40477253  0.79544119    -0.58200
H573        H  0.17443932  0.34475989  0.77646111     0.16300
O574        O  0.19473641  0.39813206  0.71826849    -0.59700
H575        H  0.22407712  0.45734761  0.73779323     0.14800
H576        H  0.19480302  0.03132486  0.80104422     0.46700
H577        H  0.17788448  0.40484611  0.79871798     0.42000
H578        H  0.17093871  0.39702561  0.71574887     0.45500
H579        H  0.27791448  0.45014358  0.79706852     0.37000
O580        O  0.27267994  0.66935417  0.80816305    -0.78200
C581        C  0.28771114  0.57491778  0.80407305     0.82900
O582        O  0.28041198  0.63522490  0.87213621    -0.79300
O583        O  0.37144065  0.61099766  0.84684003    -0.80800
O584        O  0.40567168  0.72070694  0.80987338    -0.80600
O585        O  0.32673992  0.72137396  0.80723972    -0.79200
Zn586      Zn  0.28152120  0.63508102  0.82458371     1.55700
O587        O  0.40382968  0.66696921  0.80927451    -0.80600
Cd588      Cd  0.35958227  0.71079135  0.82459353     1.59700
Cd589      Cd  0.33392652  0.66073931  0.86206504     1.59600
O590        O  0.37696535  0.74807831  0.84617904    -0.80600
O591        O  0.33216916  0.65935047  0.83400830    -1.91100
Cd592      Cd  0.35700520  0.63278508  0.82473907     1.59900
O593        O  0.36177756  0.71474590  0.87219870    -0.80500
O594        O  0.32160027  0.58864415  0.80845950    -0.79200
C595        C  0.24900649  0.62025834  0.86400986     0.83300
C596        C  0.29298061  0.70230704  0.80237340     0.83000
O597        O  0.26928427  0.58975477  0.80930059    -0.78100
C598        C  0.41918698  0.70097362  0.80496348     0.83800
O599        O  0.24626673  0.61885479  0.84627211    -0.78200
C600        C  0.37637752  0.74587436  0.86391841     0.83900
C601        C  0.37058005  0.61303875  0.86453578     0.84300
O602        O  0.35849724  0.63185321  0.87253050    -0.80700
C603        C  0.16821327  0.82665178  0.73876349    -0.02200
C604        C  0.00243245  0.49696337  0.92819070    -0.02200
O605        O  0.43581042  0.98875924  0.52483526    -0.78200
C606        C  0.05158568  0.57970075  0.52991253     0.82900
O607        O  0.47722371  0.52685981  0.46151435    -0.79300
O608        O  0.09309777  0.53367660  0.48683454    -0.80800
O609        O  0.01174211  0.93337724  0.52522981    -0.80600
O610        O  0.43066703  0.93365009  0.52437113    -0.79200
Zn611      Zn  0.48055467  0.52284418  0.50926394     1.55700
O612        O  0.06449007  0.98693102  0.52611912    -0.80600
Cd613      Cd  0.47714390  0.94368068  0.50960593     1.59700
Cd614      Cd  0.50730649  0.99785461  0.47276701     1.59600
O615        O  0.46060268  0.90816257  0.48714058    -0.80600
O616        O  0.50553119  0.99582955  0.50079307    -1.91100
Cd617      Cd  0.05672209  0.51959502  0.50878098     1.59900
O618        O  0.47954674  0.94463122  0.46212119    -0.80500
O619        O  0.07107937  0.56673455  0.52377719    -0.79200
C620        C  0.46181290  0.54136781  0.47068167     0.83300
C621        C  0.41870717  0.95479374  0.52919296     0.83000
O622        O  0.01717576  0.56456908  0.52625499    -0.78100
C623        C  0.04490659  0.95340131  0.53096862     0.83800
O624        O  0.46212399  0.54165055  0.48845262    -0.78200
C625        C  0.46321628  0.91261072  0.46948422     0.83900
C626        C  0.09015660  0.53492460  0.46918228     0.84300
O627        O  0.05908258  0.52445295  0.46125905    -0.80700
C628        C  0.33950496  0.66756527  0.40422369    -0.02200
C629        C  0.16797793  0.82763983  0.59358512    -0.02200
O630        O  0.23490992  0.89522733  0.13955392    -0.78200
C631        C  0.12186444  0.87613885  0.13404821     0.82900
O632        O  0.19166394  0.88900440  0.20250627    -0.79300
O633        O  0.07614666  0.78815175  0.17708235    -0.80800
O634        O  0.15627463  0.76491223  0.13897609    -0.80600
O635        O  0.23703921  0.84363474  0.14107236    -0.79200
Zn636      Zn  0.19024517  0.88549450  0.15483798     1.55700
O637        O  0.10301219  0.76445717  0.13875747    -0.80600
Cd638      Cd  0.19032969  0.80880961  0.15612906     1.59700
Cd639      Cd  0.16430188  0.83552296  0.19269843     1.59600
O640        O  0.20693205  0.78962095  0.17870286    -0.80600
O641        O  0.16494889  0.83539161  0.16467715    -1.91100
Cd642      Cd  0.11307032  0.80852850  0.15529199     1.59900
O643        O  0.19069334  0.80904500  0.20371327    -0.80500
O644        O  0.10201330  0.84295338  0.13950670    -0.79200
C645        C  0.20760173  0.91989730  0.19406445     0.83300
C646        C  0.25042294  0.87677132  0.13557509     0.83000
O647        O  0.15591525  0.89521320  0.13861499    -0.78100
C648        C  0.12278624  0.75106512  0.13368000     0.83800
O649        O  0.20857753  0.92173916  0.17627924    -0.78200
C650        C  0.20571786  0.79236189  0.19636931     0.83900
C651        C  0.07920434  0.79114511  0.19476583     0.84300
O652        O  0.11054952  0.80906330  0.20284789    -0.80700
C653        C  0.99871950  0.50316562  0.07178300    -0.02200
C654        C  0.33098021  0.67085374  0.26074505    -0.02200
C655        C  0.33108326  0.94345031  0.10509967    -0.27300
C656        C  0.35372395  0.92784810  0.10571727     0.02300
C657        C  0.34177101  0.89490696  0.11569842     0.30400
C658        C  0.30782756  0.87833895  0.12500743    -0.19100
C659        C  0.28530975  0.89421748  0.12470033    -0.28500
C660        C  0.29724886  0.92704936  0.11448280     0.44400
C661        C  0.39087640  0.94786547  0.09708868     0.05600
O662        O  0.36421425  0.88013600  0.11750761    -0.57000
H663        H  0.29967631  0.85346245  0.13295193     0.18600
O664        O  0.27592160  0.94313302  0.11331273    -0.63700
H665        H  0.33994945  0.96881198  0.09746280     0.17000
C666        C  0.40217132  0.93158914  0.08364435     0.29300
C667        C  0.43767659  0.95152043  0.07604232    -0.24600
C668        C  0.46267727  0.98855975  0.08099681    -0.23900
C669        C  0.45119436  0.00402559  0.09531889     0.40700
C670        C  0.41565317  0.98377526  0.10285989    -0.26400
O671        O  0.37818158  0.89671846  0.07731411    -0.58200
H672        H  0.44571349  0.93799165  0.06587182     0.16300
O673        O  0.47338034  0.53815899  0.10184103    -0.59700
H674        H  0.40774541  0.99595654  0.11384651     0.14800
H675        H  0.28630438  0.96302007  0.12274971     0.46700
H676        H  0.38899998  0.88156206  0.08125754     0.42000
H677        H  0.46206844  0.55366923  0.09987748     0.45500
H678        H  0.35134092  0.85633332  0.11078557     0.37000
C679        C  0.03070652  0.60644464  0.07790669    -0.27300
C680        C  0.06184656  0.61866712  0.08939608     0.02300
C681        C  0.07598757  0.59524973  0.09271773     0.30400
C682        C  0.05750466  0.55938920  0.08574557    -0.19100
C683        C  0.02311071  0.54486938  0.07647783    -0.28500
C684        C  0.01170286  0.57021752  0.07120470     0.44400
C685        C  0.07729981  0.65436994  0.09922307     0.05600
O686        O  0.10614051  0.60607633  0.10410588    -0.57000
H687        H  0.07018260  0.54297783  0.08824638     0.18600
O688        O  0.48359717  0.56031834  0.05893820    -0.63700
H689        H  0.02019701  0.62463905  0.07471470     0.17000
C690        C  0.11500581  0.68123461  0.09815544     0.29300
C691        C  0.12933196  0.71285419  0.10926128    -0.24600
C692        C  0.10645450  0.71841368  0.12137206    -0.23900
C693        C  0.06835148  0.69226304  0.12174454     0.40700
C694        C  0.05416865  0.66049316  0.11082691    -0.26400
O695        O  0.13767667  0.67723475  0.08588090    -0.58200
H696        H  0.15847984  0.73310708  0.10837823     0.16300
O697        O  0.04507532  0.69635912  0.13351872    -0.59700
H698        H  0.02511621  0.63996368  0.11186151     0.14800
H699        H  0.46512408  0.56249865  0.06649275     0.46700
H700        H  0.15695237  0.67647965  0.09362423     0.42000
H701        H  0.03309084  0.70685193  0.12567793     0.45500
H702        H  0.12574693  0.60730428  0.09597150     0.37000
C703        C  0.05036638  0.89288705  0.10998928    -0.27300
C704        C  0.07264542  0.92769739  0.10213899     0.02300
C705        C  0.11121885  0.94488656  0.10387712     0.30400
C706        C  0.12701621  0.92765988  0.11400265    -0.19100
C707        C  0.10471842  0.89298027  0.12237649    -0.28500
C708        C  0.06596291  0.87533524  0.11987480     0.44400
C709        C  0.05500555  0.94729358  0.09400560     0.05600
O710        O  0.13356147  0.97923947  0.09648632    -0.57000
H711        H  0.15676499  0.94178960  0.11553050     0.18600
O712        O  0.04276529  0.84169991  0.12777306    -0.63700
H713        H  0.02058921  0.87963048  0.10883927     0.17000
C714        C  0.04852633  0.94706253  0.07480276     0.29300
C715        C  0.03077612  0.96522244  0.06770218    -0.24600
C716        C  0.02064745  0.98563272  0.07943921    -0.23900
C717        C  0.02560194  0.98352711  0.09900700     0.40700
C718        C  0.04272351  0.96478525  0.10596501    -0.26400
O719        O  0.05846295  0.92821803  0.06291048    -0.58200
H720        H  0.02492925  0.96270898  0.05293711     0.16300
O721        O  0.01379741  0.99985496  0.11152424    -0.59700
H722        H  0.04657044  0.96403341  0.12088849     0.14800
H723        H  0.03756229  0.82355392  0.11775727     0.46700
H724        H  0.08340317  0.94668284  0.05841261     0.42000
H725        H  0.53615238  0.01877366  0.11853022     0.45500
H726        H  0.13939183  0.97484268  0.08372072     0.37000
C727        C  0.25761544  0.70008781  0.25279717    -0.27300
C728        C  0.27705692  0.73133468  0.24155281     0.02300
C729        C  0.31530636  0.74708003  0.23970437     0.30400
C730        C  0.33300018  0.72950869  0.24739021    -0.19100
C731        C  0.31274849  0.69444032  0.25594944    -0.28500
C732        C  0.27537036  0.68230382  0.26046698     0.44400
C733        C  0.25722207  0.74564159  0.23041023     0.05600
O734        O  0.33557419  0.77947911  0.23011397    -0.57000
H735        H  0.36261096  0.74321250  0.24582994     0.18600
O736        O  0.25495164  0.65104061  0.27082977    -0.63700
H737        H  0.22824778  0.68843031  0.25490569     0.17000
C738        C  0.25422713  0.74073843  0.21097370     0.29300
C739        C  0.23716884  0.75573975  0.20021598    -0.24600
C740        C  0.22264049  0.77589330  0.20849994    -0.23900
C741        C  0.22536932  0.78039963  0.22812405     0.40700
C742        C  0.24229878  0.76504120  0.23889872    -0.26400
O743        O  0.26836800  0.72161880  0.20231366    -0.58200
H744        H  0.23555382  0.75165040  0.18526590     0.16300
O745        O  0.21187561  0.79989205  0.23696870    -0.59700
H746        H  0.24450847  0.76897384  0.25386843     0.14800
H747        H  0.25438301  0.65984985  0.28354509     0.46700
H748        H  0.24855897  0.69543617  0.20300176     0.42000
H749        H  0.23304478  0.82543374  0.23775868     0.45500
H750        H  0.33983100  0.77228004  0.21764587     0.37000
C751        C  0.24236603  0.98834485  0.23449227    -0.27300
C752        C  0.26098422  0.52637594  0.22378069     0.02300
C753        C  0.25790454  0.52486702  0.20421883     0.30400
C754        C  0.24197863  0.98856232  0.19553478    -0.19100
C755        C  0.22533391  0.95465967  0.20503487    -0.28500
C756        C  0.22594911  0.95487557  0.22478705     0.44400
C757        C  0.27719282  0.56200465  0.23374308     0.05600
O758        O  0.27263547  0.55664961  0.19385406    -0.57000
H759        H  0.24253245  0.98947894  0.18043933     0.18600
O760        O  0.21097476  0.92271196  0.23480204    -0.63700
H761        H  0.24240419  0.98808514  0.24960199     0.17000
C762        C  0.26271761  0.58534932  0.23128220     0.29300
C763        C  0.27956470  0.61980240  0.23984150    -0.24600
C764        C  0.31020999  0.63153344  0.25199663    -0.23900
C765        C  0.32414693  0.60719784  0.25457776     0.40700
C766        C  0.30766614  0.57305054  0.24553346    -0.26400
O767        O  0.23221010  0.57496588  0.22024909    -0.58200
H768        H  0.26885606  0.63740542  0.23608325     0.16300
O769        O  0.35486813  0.61728114  0.26543415    -0.59700
H770        H  0.31925054  0.55539047  0.24747815     0.14800
H771        H  0.18549094  0.91672748  0.23777056     0.46700
H772        H  0.21078055  0.56038699  0.22852697     0.42000
H773        H  0.34641284  0.59997432  0.27614623     0.45500
H774        H  0.25128414  0.55684995  0.18799172     0.37000
C775        C  0.40854328  0.70837645  0.22356230    -0.27300
C776        C  0.44064198  0.72025860  0.23418512     0.02300
C777        C  0.43755278  0.71540335  0.25363325     0.30400
C778        C  0.40285217  0.69927701  0.26216688    -0.19100
C779        C  0.37021182  0.68847815  0.25170655    -0.28500
C780        C  0.37385335  0.69238289  0.23195195     0.44400
C781        C  0.47695667  0.73703363  0.22464745     0.05600
O782        O  0.46827499  0.72564097  0.26446696    -0.57000
H783        H  0.40207612  0.69441564  0.27697806     0.18600
O784        O  0.34334819  0.68023749  0.22064383    -0.63700
H785        H  0.41029308  0.71176862  0.20854812     0.17000
C786        C  0.48205101  0.71979770  0.20908420     0.29300
C787        C  0.01530092  0.73934263  0.19964989    -0.24600
C788        C  0.04509032  0.77270412  0.20601266    -0.23900
C789        C  0.04126373  0.78811811  0.22264115     0.40700
C790        C  0.00747396  0.77096642  0.23213785    -0.26400
O791        O  0.45456215  0.68590393  0.20321378    -0.58200
H792        H  0.01789743  0.72670541  0.18707427     0.16300
O793        O  0.06954171  0.82102311  0.22909474    -0.59700
H794        H  0.00443441  0.78408239  0.24439768     0.14800
H795        H  0.34561350  0.70247824  0.21455968     0.46700
H796        H  0.45720109  0.66792801  0.21107731     0.42000
H797        H  0.08182427  0.81439844  0.23895524     0.45500
H798        H  0.47158495  0.70395686  0.26465516     0.37000
C799        C  0.31430193  0.63946240  0.31315538    -0.27300
C800        C  0.33784491  0.67254723  0.32217635     0.02300
C801        C  0.35682031  0.70487812  0.31160913     0.30400
C802        C  0.35330110  0.70347992  0.29214386    -0.19100
C803        C  0.33192765  0.66981569  0.28253566    -0.28500
C804        C  0.31043573  0.63773977  0.29367225     0.44400
C805        C  0.34034212  0.67305057  0.34277046     0.05600
O806        O  0.37948778  0.73790351  0.32016038    -0.57000
H807        H  0.36835777  0.72893108  0.28436156     0.18600
O808        O  0.28284726  0.60557206  0.28609572    -0.63700
H809        H  0.29786492  0.61481862  0.32136677     0.17000
C810        C  0.31971473  0.68376741  0.35353023     0.29300
C811        C  0.32054355  0.68190605  0.37298676    -0.24600
C812        C  0.34119869  0.66855025  0.38244404    -0.23900
C813        C  0.36418116  0.66038334  0.37126805     0.40700
C814        C  0.36247250  0.66155403  0.35170472    -0.26400
O815        O  0.29830265  0.69582030  0.34512767    -0.58200
H816        H  0.30394524  0.69007607  0.38084990     0.16300
O817        O  0.38935249  0.65246688  0.37897757    -0.59700
H818        H  0.37920618  0.65411058  0.34343609     0.14800
H819        H  0.28806816  0.58599418  0.28995012     0.46700
H820        H  0.27438676  0.67322304  0.34246721     0.42000
H821        H  0.41402775  0.67269217  0.37513988     0.45500
H822        H  0.36378778  0.74888726  0.32229025     0.37000
C823        C  0.18704062  0.56227527  0.45367469    -0.27300
C824        C  0.19104342  0.58302998  0.43757223     0.02300
C825        C  0.16060991  0.58546606  0.43106336     0.30400
C826        C  0.12732897  0.56845634  0.44103427    -0.19100
C827        C  0.12404363  0.54938918  0.45773022    -0.28500
C828        C  0.15406456  0.54564891  0.46373252     0.44400
C829        C  0.22789985  0.60407343  0.42863188     0.05600
O830        O  0.16355877  0.60561633  0.41541563    -0.57000
H831        H  0.10458746  0.57153963  0.43611825     0.18600
O832        O  0.15169520  0.52614460  0.47955675    -0.63700
H833        H  0.20995800  0.55957744  0.45869950     0.17000
C834        C  0.25883901  0.62844599  0.43924298     0.29300
C835        C  0.29363278  0.64734356  0.43107401    -0.24600
C836        C  0.29909664  0.64457139  0.41183019    -0.23900
C837        C  0.26776457  0.61826647  0.40141165     0.40700
C838        C  0.23268926  0.59916312  0.40975877    -0.26400
O839        O  0.25537184  0.63434332  0.45772185    -0.58200
H840        H  0.31658036  0.66550162  0.43990802     0.16300
O841        O  0.27082187  0.60936926  0.38342063    -0.59700
H842        H  0.20926180  0.57946237  0.40155998     0.14800
H843        H  0.14121805  0.50034959  0.47536523     0.46700
H844        H  0.24933136  0.65425105  0.45781017     0.42000
H845        H  0.27083224  0.58587595  0.38428016     0.45500
H846        H  0.17307660  0.63107071  0.41991886     0.37000
C847        C  0.42688049  0.84967994  0.42692349    -0.27300
C848        C  0.41230095  0.81506836  0.43531991     0.02300
C849        C  0.41542496  0.81251568  0.45470748     0.30400
C850        C  0.43243531  0.84441274  0.46555206    -0.19100
C851        C  0.44655337  0.87941261  0.45734676    -0.28500
C852        C  0.44400648  0.88176128  0.43773976     0.44400
C853        C  0.39323878  0.78130777  0.42402116     0.05600
O854        O  0.40251276  0.77887853  0.46311103    -0.57000
H855        H  0.43440199  0.84158231  0.48047234     0.18600
O856        O  0.45715112  0.91507756  0.42900020    -0.63700
H857        H  0.42459178  0.85179110  0.41196725     0.17000
C858        C  0.35466048  0.75965167  0.42421647     0.29300
C859        C  0.33718667  0.72445544  0.41643316    -0.24600
C860        C  0.35785428  0.70912065  0.40937636    -0.23900
C861        C  0.39631793  0.73353058  0.40670565     0.40700
C862        C  0.41369382  0.76903092  0.41431748    -0.26400
O863        O  0.33384852  0.77261071  0.43218935    -0.58200
H864        H  0.30736115  0.70905694  0.41652926     0.16300
O865        O  0.41745033  0.72219865  0.39761862    -0.59700
H866        H  0.44344255  0.78625541  0.41347114     0.14800
H867        H  0.48237670  0.92212856  0.42484175     0.46700
H868        H  0.32692654  0.76078589  0.44464341     0.42000
H869        H  0.43393221  0.72099290  0.40720727     0.45500
H870        H  0.37783846  0.77208545  0.46801131     0.37000
C871        C  0.39705261  0.64357614  0.43878070    -0.27300
C872        C  0.39013084  0.60977673  0.43183624     0.02300
C873        C  0.36562038  0.59402468  0.41678060     0.30400
C874        C  0.34949850  0.61281529  0.40851621    -0.19100
C875        C  0.35918598  0.64883315  0.41402784    -0.28500
C876        C  0.38159534  0.66284985  0.43042269     0.44400
C877        C  0.40721891  0.59059058  0.44127236     0.05600
O878        O  0.35594908  0.55953606  0.41060527    -0.57000
H879        H  0.32997954  0.59951574  0.39724784     0.18600
O880        O  0.38559982  0.69311034  0.43968052    -0.63700
H881        H  0.41420783  0.65495440  0.45109309     0.17000
C882        C  0.43205532  0.58311544  0.43191317     0.29300
C883        C  0.44933821  0.56674308  0.44150745    -0.24600
C884        C  0.44264188  0.55801685  0.46058836    -0.23900
C885        C  0.41736684  0.56533703  0.46983980     0.40700
C886        C  0.40020682  0.58164471  0.46021698    -0.26400
O887        O  0.44030814  0.59251148  0.41350883    -0.58200
H888        H  0.46858415  0.56154256  0.43405752     0.16300
O889        O  0.40909226  0.55672541  0.48831686    -0.59700
H890        H  0.38123000  0.58734912  0.46760613     0.14800
H891        H  0.41252908  0.71066623  0.44060696     0.46700
H892        H  0.45984940  0.61884745  0.41358083     0.42000
H893        H  0.39886483  0.04307936  0.49046146     0.45500
H894        H  0.36926671  0.56352474  0.39867045     0.37000
C895        C  0.26542456  0.90703653  0.57794919    -0.27300
C896        C  0.27722471  0.88880332  0.56609014     0.02300
C897        C  0.25288351  0.85170604  0.56193705     0.30400
C898        C  0.21833890  0.83276843  0.57038742    -0.19100
C899        C  0.20699095  0.84938133  0.58395644    -0.28500
C900        C  0.23054742  0.88811378  0.58641983     0.44400
C901        C  0.31473730  0.90811852  0.55787810     0.05600
O902        O  0.26239903  0.83362804  0.54929058    -0.57000
H903        H  0.20045283  0.80524130  0.56538449     0.18600
O904        O  0.22000641  0.90775179  0.59739772    -0.63700
H905        H  0.28341611  0.93605453  0.58079519     0.17000
C906        C  0.32697973  0.93969328  0.54667220     0.29300
C907        C  0.36140507  0.95533089  0.53786617    -0.24600
C908        C  0.38378840  0.93948888  0.53979598    -0.23900
C909        C  0.37189985  0.90855308  0.55149396     0.40700
C910        C  0.33773531  0.89322261  0.56040796    -0.26400
O911        O  0.30500272  0.95467707  0.54370573    -0.58200
H912        H  0.36998966  0.97912897  0.52895727     0.16300
O913        O  0.39332961  0.89290526  0.55426670    -0.59700
H914        H  0.32886017  0.86917574  0.56916852     0.14800
H915        H  0.21373517  0.92203216  0.58859418     0.46700
H916        H  0.29023376  0.94219977  0.53242531     0.42000
H917        H  0.40919206  0.90596058  0.56515888     0.45500
H918        H  0.25490350  0.83855444  0.53697149     0.37000
C919        C  0.09695236  0.73312415  0.57081846    -0.27300
C920        C  0.11579790  0.71389613  0.57263892     0.02300
C921        C  0.14842622  0.72926354  0.58325706     0.30400
C922        C  0.16286020  0.76447602  0.59091838    -0.19100
C923        C  0.14667450  0.78631812  0.58716853    -0.28500
C924        C  0.11110860  0.76822360  0.57839105     0.44400
C925        C  0.10085372  0.67801552  0.56313159     0.05600
O926        O  0.16692567  0.71051314  0.58583975    -0.57000
H927        H  0.18850299  0.77602976  0.59872042     0.18600
O928        O  0.08888724  0.78337283  0.57765384    -0.63700
H929        H  0.07084282  0.72081226  0.56338316     0.17000
C930        C  0.06474038  0.64917229  0.56677881     0.29300
C931        C  0.04912648  0.61724369  0.55594927    -0.24600
C932        C  0.06926740  0.61323802  0.54153759    -0.23900
C933        C  0.10579136  0.64178589  0.53818190     0.40700
C934        C  0.12133820  0.67383154  0.54898892    -0.26400
O935        O  0.04423308  0.65225628  0.58069516    -0.58200
H936        H  0.02114652  0.59551908  0.55882947     0.16300
O937        O  0.12599535  0.63932215  0.52390106    -0.59700
H938        H  0.14893430  0.69607224  0.54584377     0.14800
H939        H  0.06827328  0.76872034  0.58636238     0.46700
H940        H  0.05259807  0.64582625  0.59233611     0.42000
H941        H  0.11955774  0.64903593  0.51276693     0.45500
H942        H  0.15450638  0.69376465  0.59651725     0.37000
C943        C  0.11401732  0.94095968  0.55999277    -0.27300
C944        C  0.09428751  0.90296684  0.56297936     0.02300
C945        C  0.05765776  0.88202339  0.55673258     0.30400
C946        C  0.04139069  0.89903959  0.54701148    -0.19100
C947        C  0.06153716  0.93697540  0.54310774    -0.28500
C948        C  0.09805725  0.95809547  0.55008123     0.44400
C949        C  0.11319708  0.88487345  0.57110504     0.05600
O950        O  0.03773376  0.84481851  0.55991338    -0.57000
H951        H  0.01329718  0.88217922  0.54202994     0.18600
O952        O  0.11861607  0.99537009  0.54718898    -0.63700
H953        H  0.14232803  0.95717283  0.56481317     0.17000
C954        C  0.12697660  0.86815795  0.55946861     0.29300
C955        C  0.14461059  0.85071889  0.56718432    -0.24600
C956        C  0.14809006  0.84826403  0.58674498    -0.23900
C957        C  0.13553973  0.86713247  0.59833760     0.40700
C958        C  0.11824352  0.88502901  0.59035828    -0.26400
O959        O  0.12289218  0.86833082  0.54047821    -0.58200
H960        H  0.15471631  0.83779419  0.55777903     0.16300
O961        O  0.14237994  0.87107894  0.61715085    -0.59700
H962        H  0.10884812  0.89929905  0.59927926     0.14800
H963        H  0.13416389  0.99854841  0.53618848     0.46700
H964        H  0.14497560  0.89119452  0.53610123     0.42000
H965        H  0.11782913  0.85861489  0.62323107     0.45500
H966        H  0.04133501  0.83348221  0.54864644     0.37000
C967        C  0.48899983  0.97028682  0.98209886    -0.27300
C968        C  0.99966042  0.50107501  0.98961799     0.02300
C969        C  0.01245994  0.53279371  0.97864045     0.30400
C970        C  0.01370453  0.53048914  0.95921675    -0.19100
C971        C  0.00144376  0.49651294  0.95001360    -0.28500
C972        C  0.48988390  0.96626059  0.96273861     0.44400
C973        C  0.99897421  0.50283444  0.01021168     0.05600
O974        O  0.02396813  0.56627115  0.98678368    -0.57000
H975        H  0.02347317  0.55550003  0.95114537     0.18600
O976        O  0.48267697  0.93270752  0.95628107    -0.63700
H977        H  0.48100440  0.94664163  0.99104926     0.17000
C978        C  0.46749344  0.99573549  0.02053124     0.29300
C979        C  0.46797421  0.99605697  0.04005635    -0.24600
C980        C  0.99807872  0.50245027  0.04995333    -0.23900
C981        C  0.03153712  0.51520279  0.03987570     0.40700
C982        C  0.03155308  0.51470232  0.02034638    -0.26400
O983        O  0.43467960  0.98351288  0.01123850    -0.58200
H984        H  0.44217646  0.98807850  0.04689498     0.16300
O985        O  0.06439609  0.52703124  0.04906845    -0.59700
H986        H  0.05722170  0.52343597  0.01305975     0.14800
H987        H  0.50435051  0.93056182  0.95988745     0.46700
H988        H  0.43307608  0.00586845  0.00885732     0.42000
H989        H  0.07839969  0.55414019  0.04747032     0.45500
H990        H  0.00163122  0.56858405  0.98729381     0.37000
C991        C  0.20287858  0.83705209  0.68740346    -0.27300
C992        C  0.17135515  0.82814650  0.67662940     0.02300
C993        C  0.13862470  0.81918008  0.68631091     0.30400
C994        C  0.13707445  0.81602810  0.70575992    -0.19100
C995        C  0.16902933  0.82720128  0.71682070    -0.28500
C996        C  0.20251432  0.83853704  0.70696289     0.44400
C997        C  0.17228702  0.82726923  0.65557934     0.05600
O998        O  0.10765696  0.81394420  0.67703576    -0.57000
H999        H  0.11015067  0.80534607  0.71167135     0.18600
O1000       O  0.23549299  0.85204318  0.71630535    -0.63700
H1001       H  0.22836289  0.84291725  0.68084770     0.17000
C1002       C  0.20396757  0.85111802  0.64507524     0.29300
C1003       C  0.20343699  0.84872670  0.62551135    -0.24600
C1004       C  0.17043847  0.82643459  0.61541390    -0.23900
C1005       C  0.13876212  0.80268006  0.62620630     0.40700
C1006       C  0.14073437  0.80173746  0.64566002    -0.26400
O1007       O  0.23509857  0.87853804  0.65356608    -0.58200
H1008       H  0.22932269  0.86578210  0.61863744     0.16300
O1009       O  0.10532638  0.77974258  0.61796845    -0.59700
H1010       H  0.11660567  0.78099018  0.65293085     0.14800
H1011       H  0.24286980  0.83325048  0.71480916     0.46700
H1012       H  0.25464656  0.87233667  0.65147743     0.42000
H1013       H  0.09056756  0.79191650  0.61957223     0.45500
H1014       H  0.11119283  0.83891420  0.67542732     0.37000
C1015       C  0.48349217  0.90938965  0.89994907    -0.27300
C1016       C  0.44658832  0.88454773  0.90417455     0.02300
C1017       C  0.42814659  0.89535471  0.91655391     0.30400
C1018       C  0.44661912  0.93071164  0.92432532    -0.19100
C1019       C  0.48429931  0.95623988  0.92052675    -0.28500
C1020       C  0.50224996  0.94486081  0.90754330     0.44400
C1021       C  0.42710715  0.84879954  0.89419379     0.05600
O1022       O  0.39170180  0.87196485  0.92074231    -0.57000
H1023       H  0.43129987  0.93844606  0.93350183     0.18600
O1024       O  0.03318635  0.97014776  0.89866631    -0.63700
H1025       H  0.49768607  0.90169854  0.88998622     0.17000
C1026       C  0.42533609  0.84806759  0.87460255     0.29300
C1027       C  0.40852446  0.81449729  0.86513997    -0.24600
C1028       C  0.39324795  0.78080909  0.87482934    -0.23900
C1029       C  0.39448329  0.78158758  0.89455717     0.40700
C1030       C  0.41134639  0.81540150  0.90404739    -0.26400
O1031       O  0.43907837  0.88016318  0.86457845    -0.58200
H1032       H  0.40765571  0.81507163  0.85005030     0.16300
O1033       O  0.38003451  0.74967098  0.90473913    -0.59700
H1034       H  0.41264760  0.81556892  0.91914142     0.14800
H1035       H  0.04911940  0.95946725  0.90121499     0.46700
H1036       H  0.46253529  0.88429810  0.85914674     0.42000
H1037       H  0.35442348  0.74331436  0.90766537     0.45500
H1038       H  0.37764020  0.87683473  0.91111216     0.37000
C1039       C  0.14821294  0.57528638  0.87862996    -0.27300
C1040       C  0.15116901  0.57480242  0.89809762     0.02300
C1041       C  0.18614257  0.58871857  0.90634210     0.30400
C1042       C  0.21767119  0.60327043  0.89511623    -0.19100
C1043       C  0.21494708  0.60413662  0.87553400    -0.28500
C1044       C  0.17953687  0.58956231  0.86735371     0.44400
C1045       C  0.11718407  0.55969748  0.90938996     0.05600
O1046       O  0.18982730  0.58860381  0.92534863    -0.57000
H1047       H  0.24434504  0.61403749  0.90182711     0.18600
O1048       O  0.17506830  0.58970117  0.84839438    -0.63700
H1049       H  0.12131556  0.56433320  0.87211304     0.17000
C1050       C  0.09473899  0.57540943  0.90826842     0.29300
C1051       C  0.05930633  0.55696462  0.91584499    -0.24600
C1052       C  0.04434816  0.52121642  0.92353450    -0.23900
C1053       C  0.06967312  0.50912989  0.92761613     0.40700
C1054       C  0.10535024  0.52771616  0.92003130    -0.26400
O1055       O  0.10719230  0.60874370  0.89961195    -0.58200
H1056       H  0.04336080  0.57054590  0.91493918     0.16300
O1057       O  0.05793934  0.98107087  0.93920048    -0.59700
H1058       H  0.12296774  0.51596658  0.92158045     0.14800
H1059       H  0.16965306  0.56508179  0.84416113     0.46700
H1060       H  0.09488775  0.60287858  0.88722602     0.42000
H1061       H  0.06742059  0.98997089  0.95195159     0.45500
H1062       H  0.19258785  0.61223016  0.92958075     0.37000
C1063       C  0.45945387  0.53424470  0.89369997    -0.27300
C1064       C  0.43700871  0.54182680  0.90491313     0.02300
C1065       C  0.43406413  0.53289988  0.92398196     0.30400
C1066       C  0.45460367  0.51801544  0.93164503    -0.19100
C1067       C  0.47929726  0.51242473  0.92068139    -0.28500
C1068       C  0.47945330  0.51889676  0.90116874     0.44400
C1069       C  0.41642123  0.55820047  0.89610042     0.05600
O1070       O  0.40962194  0.53669642  0.93501224    -0.57000
H1071       H  0.45009964  0.51011377  0.94616672     0.18600
O1072       O  0.00252896  0.51403086  0.88850625    -0.63700
H1073       H  0.46166260  0.54038615  0.87890924     0.17000
C1074       C  0.41977470  0.59128576  0.90263316     0.29300
C1075       C  0.40325599  0.60807080  0.89273317    -0.24600
C1076       C  0.38425328  0.59294710  0.87595186    -0.23900
C1077       C  0.37997365  0.55929178  0.86975000     0.40700
C1078       C  0.39587894  0.54224867  0.87979680    -0.26400
O1079       O  0.44065966  0.60845964  0.91811724    -0.58200
H1080       H  0.40689820  0.63393768  0.89770376     0.16300
O1081       O  0.36068800  0.54299405  0.85372247    -0.59700
H1082       H  0.39280590  0.51674387  0.87459769     0.14800
H1083       H  0.98477498  0.49297656  0.88074359     0.46700
H1084       H  0.46629506  0.62363201  0.91349500     0.42000
H1085       H  0.33470216  0.52714675  0.85771796     0.45500
H1086       H  0.42498684  0.55603589  0.94420745     0.37000
C1087       C  0.28318093  0.76948301  0.77042645    -0.27300
C1088       C  0.24472509  0.75231493  0.76838873     0.02300
C1089       C  0.22235767  0.71742793  0.77656248     0.30400
C1090       C  0.23846006  0.70096602  0.78704252    -0.19100
C1091       C  0.27689253  0.71907676  0.78994959    -0.28500
C1092       C  0.29925871  0.75363246  0.78131540     0.44400
C1093       C  0.22826784  0.77252612  0.75925518     0.05600
O1094       O  0.18463084  0.69972748  0.77499902    -0.57000
H1095       H  0.22057055  0.67444360  0.79343932     0.18600
O1096       O  0.33692529  0.77236551  0.78338639    -0.63700
H1097       H  0.30092173  0.79596923  0.76395195     0.17000
C1098       C  0.23921169  0.80861145  0.76473906     0.29300
C1099       C  0.22203183  0.82667111  0.75715328    -0.24600
C1100       C  0.19127652  0.80863355  0.74499774    -0.23900
C1101       C  0.18250904  0.77330838  0.73833010     0.40700
C1102       C  0.20086555  0.75572315  0.74549047    -0.26400
O1103       O  0.26609387  0.82635876  0.77804183    -0.58200
H1104       H  0.23313888  0.85484681  0.76136200     0.16300
O1105       O  0.15509865  0.75525588  0.72529123    -0.59700
H1106       H  0.19297290  0.72843751  0.74058220     0.14800
H1107       H  0.34217468  0.79014009  0.79360979     0.46700
H1108       H  0.25290557  0.81919190  0.79012789     0.42000
H1109       H  0.13403557  0.73516653  0.73212819     0.45500
H1110       H  0.17648155  0.70961087  0.78526150     0.37000
C1111       C  0.51149183  0.77210778  0.78461425    -0.27300
C1112       C  0.01846379  0.75373132  0.77141324     0.02300
C1113       C  0.49343561  0.71262922  0.77118492     0.30400
C1114       C  0.46114752  0.69666552  0.78185230    -0.19100
C1115       C  0.45364189  0.71820256  0.79393039    -0.28500
C1116       C  0.47932046  0.75625641  0.79528045     0.44400
C1117       C  0.05501071  0.77064517  0.76218538     0.05600
O1118       O  0.00016923  0.69381851  0.75879710    -0.57000
H1119       H  0.44181026  0.66743013  0.78055676     0.18600
O1120       O  0.47382863  0.77813045  0.80736818    -0.63700
H1121       H  0.02969548  0.80447567  0.78440548     0.17000
C1122       C  0.06828611  0.80224092  0.75101170     0.29300
C1123       C  0.10414937  0.81909647  0.74382923    -0.24600
C1124       C  0.12782205  0.80464368  0.74687849    -0.23900
C1125       C  0.11448504  0.77409273  0.75953423     0.40700
C1126       C  0.07835167  0.75696958  0.76625633    -0.26400
O1127       O  0.04660894  0.81724657  0.74720406    -0.58200
H1128       H  0.11371390  0.84399217  0.73567067     0.16300
O1129       O  0.13658603  0.76202025  0.76698722    -0.59700
H1130       H  0.06924555  0.73395919  0.77579635     0.14800
H1131       H  0.48485538  0.77655311  0.81935698     0.46700
H1132       H  0.03182401  0.80383220  0.73609262     0.42000
H1133       H  0.14661889  0.77607289  0.77871047     0.45500
H1134       H  0.99119932  0.69588233  0.74627280     0.37000
C1135       C  0.21909370  0.49446890  0.77398469    -0.27300
C1136       C  0.23182099  0.97195173  0.77504943     0.02300
C1137       C  0.26965040  0.99739089  0.77260451     0.30400
C1138       C  0.28519679  0.51760427  0.79333299    -0.19100
C1139       C  0.26943428  0.54016656  0.79323452    -0.28500
C1140       C  0.23620740  0.52844226  0.78323992     0.44400
C1141       C  0.21402295  0.93562327  0.76558413     0.05600
O1142       O  0.29058618  0.98958329  0.76098718    -0.57000
H1143       H  0.31071789  0.52589436  0.80081227     0.18600
O1144       O  0.22012053  0.54976839  0.78246814    -0.63700
H1145       H  0.19343714  0.48556851  0.76651301     0.17000
C1146       C  0.19719018  0.90284132  0.77591633     0.29300
C1147       C  0.18285709  0.86901604  0.76685852    -0.24600
C1148       C  0.18460360  0.86625556  0.74721466    -0.23900
C1149       C  0.19935682  0.89977194  0.73686029     0.40700
C1150       C  0.21451708  0.93368022  0.74611505    -0.26400
O1151       O  0.19635186  0.90362199  0.79502180    -0.58200
H1152       H  0.17109700  0.84445559  0.77541949     0.16300
O1153       O  0.19914902  0.90057160  0.71778419    -0.59700
H1154       H  0.22644340  0.95879209  0.73794904     0.14800
H1155       H  0.23072257  0.56549778  0.77126759     0.46700
H1156       H  0.17069276  0.89676732  0.79816912     0.42000
H1157       H  0.17600666  0.90010174  0.71430818     0.45500
H1158       H  0.29886440  0.97554745  0.76876466     0.37000
O1159       O  0.76657054  0.16557889  0.80766984    -0.78200
C1160       C  0.78445559  0.07406348  0.80472717     0.82900
O1161       O  0.77993249  0.13577203  0.87275641    -0.79300
O1162       O  0.87254329  0.11647284  0.84477655    -0.80800
O1163       O  0.90179870  0.22507894  0.80914122    -0.80600
O1164       O  0.81959802  0.21865925  0.80552114    -0.79200
Zn1165     Zn  0.77798664  0.13434746  0.82504594     1.55700
O1166       O  0.90058851  0.17177574  0.80712948    -0.80600
Cd1167     Cd  0.85423922  0.21220552  0.82353654     1.59700
Cd1168     Cd  0.83269641  0.16309841  0.86133106     1.59600
O1169       O  0.86896299  0.24990594  0.84487929    -0.80600
O1170       O  0.82923671  0.16092303  0.83327348    -1.91100
Cd1171     Cd  0.85486415  0.13589978  0.82295346     1.59900
O1172       O  0.85858954  0.21734851  0.87095254    -0.80500
O1173       O  0.81933157  0.09023635  0.80712431    -0.79200
C1174       C  0.74813973  0.12072754  0.86502124     0.83300
C1175       C  0.78587033  0.19792363  0.80094008     0.83000
O1176       O  0.76567409  0.08756998  0.81121800    -0.78100
C1177       C  0.91574309  0.20610818  0.80355889     0.83800
O1178       O  0.74467610  0.11955824  0.84733136    -0.78200
C1179       C  0.87007768  0.24808330  0.86260738     0.83900
C1180       C  0.87332161  0.11916942  0.86249604     0.84300
O1181       O  0.86083763  0.13720266  0.87093663    -0.80700
C1182       C  0.66592500  0.32615456  0.73928500    -0.02200
C1183       C  0.50113995  0.99592581  0.92879054    -0.02200
O1184       O  0.93580225  0.48808325  0.52496619    -0.78200
C1185       C  0.55071424  0.07924828  0.53103902     0.82900
O1186       O  0.98072513  0.02677606  0.46183716    -0.79300
O1187       O  0.59468640  0.03251842  0.48928901    -0.80800
O1188       O  0.51370312  0.43531894  0.52442914    -0.80600
O1189       O  0.93162371  0.43335314  0.52408518    -0.79200
Zn1190     Zn  0.98091262  0.02124536  0.50967317     1.55700
O1191       O  0.56668726  0.48872584  0.52399804    -0.80600
Cd1192     Cd  0.97729266  0.44392824  0.50816167     1.59700
Cd1193     Cd  0.00525077  0.49897094  0.47154964     1.59600
O1194       O  0.95971914  0.40947150  0.48521506    -0.80600
O1195       O  0.00472240  0.49635745  0.49962468    -1.91100
Cd1196     Cd  0.55702528  0.01917687  0.51063348     1.59900
O1197       O  0.97723130  0.44623940  0.46029085    -0.80500
O1198       O  0.57061861  0.06642413  0.52533442    -0.79200
C1199       C  0.96569671  0.04181193  0.47087906     0.83300
C1200       C  0.91937969  0.45407149  0.52933281     0.83000
O1201       O  0.51657941  0.06409585  0.52683046    -0.78100
C1202       C  0.54753651  0.45532635  0.52914200     0.83800
O1203       O  0.96482809  0.04119107  0.48862250    -0.78200
C1204       C  0.96157729  0.41415944  0.46756410     0.83900
C1205       C  0.59254267  0.03365448  0.47157976     0.84300
O1206       O  0.56181724  0.02317374  0.46323702    -0.80700
C1207       C  0.84108286  0.16646527  0.40519774    -0.02200
C1208       C  0.66756085  0.32752173  0.59414458    -0.02200
O1209       O  0.73312454  0.39452489  0.14093949    -0.78200
C1210       C  0.61846890  0.37449188  0.13741868     0.82900
O1211       O  0.69187136  0.39170847  0.20412307    -0.79300
O1212       O  0.57594737  0.28560982  0.18041423    -0.80800
O1213       O  0.65687034  0.26749304  0.14025383    -0.80600
O1214       O  0.73787059  0.34470032  0.14470830    -0.79200
Zn1215     Zn  0.68854375  0.38470675  0.15645883     1.55700
O1216       O  0.60309738  0.26593866  0.14076085    -0.80600
Cd1217     Cd  0.68969280  0.30939482  0.15864658     1.59700
Cd1218     Cd  0.66429469  0.33694906  0.19537175     1.59600
O1219       O  0.70337383  0.28770392  0.18114023    -0.80600
O1220       O  0.66409985  0.33558754  0.16729101    -1.91100
Cd1221     Cd  0.61199651  0.30801753  0.15839840     1.59900
O1222       O  0.69032840  0.30961351  0.20633502    -0.80500
O1223       O  0.59875248  0.34186647  0.14362611    -0.79200
C1224       C  0.70675515  0.42182511  0.19488237     0.83300
C1225       C  0.75005595  0.37696014  0.13815601     0.83000
O1226       O  0.65304829  0.39327919  0.14082212    -0.78100
C1227       C  0.62341452  0.25371435  0.13493857     0.83800
O1228       O  0.70687713  0.42197534  0.17710396    -0.78200
C1229       C  0.70303694  0.29087757  0.19881470     0.83900
C1230       C  0.57905122  0.28968213  0.19805172     0.84300
O1231       O  0.61035511  0.30981928  0.20592172    -0.80700
C1232       C  0.50213429  0.00756642  0.07216555    -0.02200
C1233       C  0.82653224  0.16525189  0.26171588    -0.02200
C1234       C  0.82746113  0.43961858  0.10497265    -0.27300
C1235       C  0.85229200  0.42691506  0.10741035     0.02300
C1236       C  0.84335805  0.39765404  0.11981313     0.30400
C1237       C  0.80993025  0.38154627  0.12959278    -0.19100
C1238       C  0.78495800  0.39430992  0.12729041    -0.28500
C1239       C  0.79406770  0.42363640  0.11476493     0.44400
C1240       C  0.88859153  0.44631874  0.09799176     0.05600
O1241       O  0.86804063  0.38603318  0.12322031    -0.57000
H1242       H  0.80393293  0.35945439  0.13931135     0.18600
O1243       O  0.77017790  0.43630454  0.11159185    -0.63700
H1244       H  0.83415913  0.46225100  0.09549894     0.17000
C1245       C  0.89845078  0.42927059  0.08431306     0.29300
C1246       C  0.93334410  0.44852815  0.07596364    -0.24600
C1247       C  0.95935794  0.48544654  0.08068399    -0.23900
C1248       C  0.94915823  0.50170362  0.09522310     0.40700
C1249       C  0.91405199  0.48225408  0.10330842    -0.26400
O1250       O  0.87384060  0.39402626  0.07873666    -0.58200
H1251       H  0.94032579  0.43433302  0.06567895     0.16300
O1252       O  0.97564299  0.03685276  0.10346686    -0.59700
H1253       H  0.90712215  0.49499950  0.11442895     0.14800
H1254       H  0.77957341  0.45868190  0.11938066     0.46700
H1255       H  0.88326018  0.37860293  0.08412494     0.42000
H1256       H  0.96413453  0.05237787  0.10252289     0.45500
H1257       H  0.85747688  0.36178907  0.11699819     0.37000
C1258       C  0.53282515  0.11055706  0.07819491    -0.27300
C1259       C  0.56426231  0.12337670  0.08949573     0.02300
C1260       C  0.57853474  0.10018199  0.09314904     0.30400
C1261       C  0.55998579  0.06399487  0.08661538    -0.19100
C1262       C  0.52567177  0.04913662  0.07721553    -0.28500
C1263       C  0.51382866  0.07411131  0.07186439     0.44400
C1264       C  0.57927698  0.15911720  0.09918671     0.05600
O1265       O  0.60897423  0.11164286  0.10439959    -0.57000
H1266       H  0.57272109  0.04773695  0.08942404     0.18600
O1267       O  0.98367227  0.06368808  0.06133574    -0.63700
H1268       H  0.52207109  0.12849622  0.07486991     0.17000
C1269       C  0.61688174  0.18632838  0.09823072     0.29300
C1270       C  0.63080769  0.21753851  0.10962958    -0.24600
C1271       C  0.60756677  0.22224195  0.12189649    -0.23900
C1272       C  0.56948651  0.19601278  0.12192393     0.40700
C1273       C  0.55575551  0.16469458  0.11074985    -0.26400
O1274       O  0.63984160  0.18294418  0.08588906    -0.58200
H1275       H  0.65992976  0.23797202  0.10896191     0.16300
O1276       O  0.54577800  0.19942944  0.13368770    -0.59700
H1277       H  0.52675246  0.14394518  0.11164545     0.14800
H1278       H  0.96512708  0.06457989  0.06944381     0.46700
H1279       H  0.65921720  0.18228549  0.09358680     0.42000
H1280       H  0.53434507  0.21068845  0.12600127     0.45500
H1281       H  0.62857836  0.11312253  0.09617324     0.37000
C1282       C  0.54831087  0.38625549  0.10876413    -0.27300
C1283       C  0.56628452  0.42456810  0.10703388     0.02300
C1284       C  0.60190693  0.44626559  0.11457055     0.30400
C1285       C  0.61887568  0.42961591  0.12405809    -0.19100
C1286       C  0.60064538  0.39119433  0.12631337    -0.28500
C1287       C  0.56512341  0.36947913  0.11831870     0.44400
C1288       C  0.54715107  0.44202890  0.09815997     0.05600
O1289       O  0.62007393  0.48386906  0.11301161    -0.57000
H1290       H  0.64607369  0.44696397  0.13001692     0.18600
O1291       O  0.54627891  0.33188183  0.11993966    -0.63700
H1292       H  0.52082852  0.36935767  0.10301230     0.17000
C1293       C  0.53975521  0.43899501  0.07896290     0.29300
C1294       C  0.52360278  0.45777104  0.07080100    -0.24600
C1295       C  0.51558006  0.48112205  0.08143073    -0.23900
C1296       C  0.52030231  0.48104533  0.10113100     0.40700
C1297       C  0.53641797  0.46217561  0.10915227    -0.26400
O1298       O  0.54844295  0.41789484  0.06801174    -0.58200
H1299       H  0.51752226  0.45362941  0.05606872     0.16300
O1300       O  0.50950207  0.49969795  0.11269244    -0.59700
H1301       H  0.54082592  0.46352392  0.12410529     0.14800
H1302       H  0.55345513  0.32300849  0.10885620     0.46700
H1303       H  0.57421445  0.43467552  0.06395161     0.42000
H1304       H  0.03527608  0.51669374  0.11804786     0.45500
H1305       H  0.63275447  0.48944656  0.10079712     0.37000
C1306       C  0.75228813  0.19353762  0.25383408    -0.27300
C1307       C  0.77154526  0.22508663  0.24274713     0.02300
C1308       C  0.80990041  0.24121241  0.24101141     0.30400
C1309       C  0.82782153  0.22370201  0.24851383    -0.19100
C1310       C  0.80784136  0.18846700  0.25688772    -0.28500
C1311       C  0.77033270  0.17591040  0.26138798     0.44400
C1312       C  0.75165130  0.23979595  0.23185114     0.05600
O1313       O  0.83011623  0.27419313  0.23188241    -0.57000
H1314       H  0.85746788  0.23778863  0.24708529     0.18600
O1315       O  0.75012039  0.14441941  0.27163514    -0.63700
H1316       H  0.72288033  0.18157494  0.25593847     0.17000
C1317       C  0.75254626  0.23964656  0.21224914     0.29300
C1318       C  0.73630554  0.25591665  0.20186116    -0.24600
C1319       C  0.71851954  0.27252219  0.21062090    -0.23900
C1320       C  0.71651535  0.27148244  0.23033754     0.40700
C1321       C  0.73283124  0.25499143  0.24076387    -0.26400
O1322       O  0.76972844  0.22399229  0.20306434    -0.58200
H1323       H  0.73812897  0.25582275  0.18680594     0.16300
O1324       O  0.69851980  0.28617197  0.23959340    -0.59700
H1325       H  0.73156978  0.25487357  0.25584806     0.14800
H1326       H  0.74947028  0.15295927  0.28440756     0.46700
H1327       H  0.75133221  0.19729816  0.20265915     0.42000
H1328       H  0.71809893  0.31126629  0.24324615     0.45500
H1329       H  0.83739106  0.26815935  0.21987760     0.37000
C1330       C  0.74608184  0.49523207  0.23291809    -0.27300
C1331       C  0.75647932  0.02138781  0.22401982     0.02300
C1332       C  0.75596330  0.02132975  0.20441292     0.30400
C1333       C  0.73621887  0.49034912  0.19432155    -0.19100
C1334       C  0.72422274  0.45784465  0.20475020    -0.28500
C1335       C  0.72940044  0.46067660  0.22428730     0.44400
C1336       C  0.77253786  0.05648219  0.23442365     0.05600
O1337       O  0.77231752  0.05385567  0.19465318    -0.57000
H1338       H  0.73302689  0.48925640  0.17929751     0.18600
O1339       O  0.71919803  0.43008044  0.23508472    -0.63700
H1340       H  0.74992826  0.49686725  0.24791026     0.17000
C1341       C  0.75797904  0.07975501  0.23223386     0.29300
C1342       C  0.77530772  0.11437441  0.24060860    -0.24600
C1343       C  0.80627887  0.12619690  0.25256917    -0.23900
C1344       C  0.82050446  0.10200593  0.25476343     0.40700
C1345       C  0.80362603  0.06771297  0.24578063    -0.26400
O1346       O  0.72703369  0.06920176  0.22151918    -0.58200
H1347       H  0.76448668  0.13189927  0.23692453     0.16300
O1348       O  0.85180478  0.11232669  0.26517492    -0.59700
H1349       H  0.81539631  0.05014517  0.24738382     0.14800
H1350       H  0.69431034  0.42291010  0.23983125     0.46700
H1351       H  0.70594725  0.05409268  0.22990317     0.42000
H1352       H  0.84406186  0.09496514  0.27584685     0.45500
H1353       H  0.75167903  0.05585388  0.18913055     0.37000
C1354       C  0.90689701  0.20629151  0.22592035    -0.27300
C1355       C  0.93846885  0.21806416  0.23703573     0.02300
C1356       C  0.93393659  0.21177800  0.25638423     0.30400
C1357       C  0.89854917  0.19474899  0.26430007    -0.19100
C1358       C  0.86646811  0.18389633  0.25330848    -0.28500
C1359       C  0.87149873  0.18890531  0.23367470     0.44400
C1360       C  0.97561504  0.23587489  0.22804442     0.05600
O1361       O  0.96387666  0.22136067  0.26772042    -0.57000
H1362       H  0.89678077  0.18919534  0.27907473     0.18600
O1363       O  0.84167414  0.17657762  0.22186471    -0.63700
H1364       H  0.90957382  0.21072017  0.21098203     0.17000
C1365       C  0.98152932  0.22039852  0.21198326     0.29300
C1366       C  0.51561243  0.23651268  0.20264263    -0.24600
C1367       C  0.54491889  0.26988552  0.20936992    -0.23900
C1368       C  0.54026745  0.28407118  0.22624164     0.40700
C1369       C  0.50609215  0.26599684  0.23545122    -0.26400
O1370       O  0.95449935  0.18703396  0.20528191    -0.58200
H1371       H  0.51875233  0.22462718  0.18992113     0.16300
O1372       O  0.56806721  0.31667787  0.23324683    -0.59700
H1373       H  0.50245607  0.27836344  0.24784784     0.14800
H1374       H  0.84378910  0.19881797  0.21584945     0.46700
H1375       H  0.95664192  0.16841405  0.21283596     0.42000
H1376       H  0.58113321  0.30962149  0.24244848     0.45500
H1377       H  0.96709981  0.19962029  0.26782541     0.37000
C1378       C  0.80957834  0.13283066  0.31404647    -0.27300
C1379       C  0.83108564  0.16630233  0.32320661     0.02300
C1380       C  0.84851952  0.19884748  0.31272967     0.30400
C1381       C  0.84606437  0.19741704  0.29324810    -0.19100
C1382       C  0.82659362  0.16365379  0.28351075    -0.28500
C1383       C  0.80624823  0.13112657  0.29451155     0.44400
C1384       C  0.83451936  0.16693108  0.34377763     0.05600
O1385       O  0.86896696  0.23218999  0.32140451    -0.57000
H1386       H  0.86033803  0.22306009  0.28556158     0.18600
O1387       O  0.78029953  0.09831833  0.28674644    -0.63700
H1388       H  0.79438840  0.10781934  0.32216856     0.17000
C1389       C  0.81568102  0.17912549  0.35498826     0.29300
C1390       C  0.81895149  0.17898029  0.37440771    -0.24600
C1391       C  0.84043746  0.16605298  0.38339414    -0.23900
C1392       C  0.86151016  0.15629385  0.37167297     0.40700
C1393       C  0.85727036  0.15565182  0.35220945    -0.26400
O1394       O  0.79373081  0.19103745  0.34708906    -0.58200
H1395       H  0.80359866  0.18812750  0.38265341     0.16300
O1396       O  0.88744160  0.14876433  0.37867315    -0.59700
H1397       H  0.87283997  0.14731570  0.34357479     0.14800
H1398       H  0.78682375  0.07975458  0.29080459     0.46700
H1399       H  0.76915450  0.16858566  0.34559328     0.42000
H1400       H  0.91173851  0.16972770  0.37490763     0.45500
H1401       H  0.85216370  0.24218895  0.32245007     0.37000
C1402       C  0.68989679  0.06039298  0.45695428    -0.27300
C1403       C  0.69498965  0.08230543  0.44117453     0.02300
C1404       C  0.66527595  0.08609296  0.43473468     0.30400
C1405       C  0.63155153  0.06891651  0.44429388    -0.19100
C1406       C  0.62699941  0.04831412  0.46055484    -0.28500
C1407       C  0.65635153  0.04350080  0.46660419     0.44400
C1408       C  0.73173218  0.10215359  0.43197398     0.05600
O1409       O  0.66931534  0.10758438  0.41948670    -0.57000
H1410       H  0.60940145  0.07297612  0.43939565     0.18600
O1411       O  0.65262297  0.02241932  0.48198716    -0.63700
H1412       H  0.71217859  0.05658844  0.46190935     0.17000
C1413       C  0.76374873  0.12545048  0.44223049     0.29300
C1414       C  0.79792621  0.14453222  0.43332346    -0.24600
C1415       C  0.80156644  0.14257509  0.41379932    -0.23900
C1416       C  0.76934040  0.11641418  0.40388559     0.40700
C1417       C  0.73501304  0.09754922  0.41289427    -0.26400
O1418       O  0.76190422  0.13038960  0.46099609    -0.58200
H1419       H  0.82184436  0.16231376  0.44174787     0.16300
O1420       O  0.77072115  0.10736913  0.38570570    -0.59700
H1421       H  0.71083907  0.07836005  0.40496888     0.14800
H1422       H  0.64311128  0.99720060  0.47712140     0.46700
H1423       H  0.75843963  0.15191296  0.46200220     0.42000
H1424       H  0.77163017  0.08433045  0.38627391     0.45500
H1425       H  0.67947466  0.13281733  0.42446385     0.37000
C1426       C  0.92111845  0.35001452  0.42557197    -0.27300
C1427       C  0.91281592  0.31632859  0.43362457     0.02300
C1428       C  0.92150390  0.31511914  0.45245612     0.30400
C1429       C  0.93759106  0.34716099  0.46315895    -0.19100
C1430       C  0.94540730  0.38106749  0.45538929    -0.28500
C1431       C  0.93751716  0.38235977  0.43626917     0.44400
C1432       C  0.89317150  0.28174422  0.42292878     0.05600
O1433       O  0.91456423  0.28260428  0.46047993    -0.57000
H1434       H  0.94390346  0.34531913  0.47765672     0.18600
O1435       O  0.94426867  0.41464345  0.42806766    -0.63700
H1436       H  0.91430792  0.35110511  0.41107380     0.17000
C1437       C  0.85518603  0.25817153  0.42542009     0.29300
C1438       C  0.83791161  0.22231406  0.41845988    -0.24600
C1439       C  0.85845247  0.20820049  0.40990434    -0.23900
C1440       C  0.89574589  0.23402194  0.40520895     0.40700
C1441       C  0.91286062  0.27020516  0.41200328    -0.26400
O1442       O  0.83481504  0.26982858  0.43500077    -0.58200
H1443       H  0.80841846  0.20564802  0.42029986     0.16300
O1444       O  0.91618323  0.22357542  0.39480614    -0.59700
H1445       H  0.94203166  0.28865609  0.40953731     0.14800
H1446       H  0.96858975  0.42459204  0.42192673     0.46700
H1447       H  0.83237796  0.25980316  0.44778745     0.42000
H1448       H  0.93502443  0.22405365  0.40339280     0.45500
H1449       H  0.89037987  0.27273186  0.46673805     0.37000
C1450       C  0.90633776  0.14798743  0.43701720    -0.27300
C1451       C  0.89721371  0.11269550  0.43133989     0.02300
C1452       C  0.86944000  0.09470959  0.41786012     0.30400
C1453       C  0.85217582  0.11261922  0.40988586    -0.19100
C1454       C  0.86299472  0.14944279  0.41434885    -0.28500
C1455       C  0.88912463  0.16604284  0.42920103     0.44400
C1456       C  0.91447951  0.09393912  0.44105896     0.05600
O1457       O  0.85737629  0.05881576  0.41324284    -0.57000
H1458       H  0.83032024  0.09769940  0.39982538     0.18600
O1459       O  0.89485642  0.19745396  0.43791085    -0.63700
H1460       H  0.92618021  0.16129423  0.44820108     0.17000
C1461       C  0.93350830  0.07969349  0.43132916     0.29300
C1462       C  0.94999048  0.06274850  0.44111373    -0.24600
C1463       C  0.94829554  0.06012632  0.46070258    -0.23900
C1464       C  0.92937032  0.07483006  0.47036408     0.40700
C1465       C  0.91286114  0.09148832  0.46054810    -0.26400
O1466       O  0.93673235  0.08274995  0.41230197    -0.58200
H1467       H  0.96439432  0.05192913  0.43331600     0.16300
O1468       O  0.92698158  0.07350144  0.48944989    -0.59700
H1469       H  0.89845734  0.10244774  0.46825437     0.14800
H1470       H  0.92179474  0.21515510  0.43733350     0.46700
H1471       H  0.95859523  0.10735554  0.40996335     0.42000
H1472       H  0.89913500  0.54729895  0.49157388     0.45500
H1473       H  0.86605323  0.05965466  0.40032578     0.37000
C1474       C  0.76644827  0.40528247  0.57879945    -0.27300
C1475       C  0.77881835  0.38622281  0.56789951     0.02300
C1476       C  0.75466564  0.34867873  0.56459152     0.30400
C1477       C  0.71966873  0.33045522  0.57271741    -0.19100
C1478       C  0.70741954  0.34825542  0.58511079    -0.28500
C1479       C  0.73107272  0.38718130  0.58679265     0.44400
C1480       C  0.81609828  0.40564302  0.55917849     0.05600
O1481       O  0.76452530  0.32952221  0.55284579    -0.57000
H1482       H  0.70214178  0.30253197  0.56821301     0.18600
O1483       O  0.71988245  0.40804007  0.59627613    -0.63700
H1484       H  0.78418287  0.43456426  0.58102229     0.17000
C1485       C  0.82744755  0.43698481  0.54785398     0.29300
C1486       C  0.86160192  0.45315139  0.53872940    -0.24600
C1487       C  0.88476632  0.43815332  0.54036949    -0.23900
C1488       C  0.87382333  0.40740281  0.55211621     0.40700
C1489       C  0.83986377  0.39149823  0.56138277    -0.26400
O1490       O  0.80482889  0.45128985  0.54505917    -0.58200
H1491       H  0.86935876  0.47673625  0.52978058     0.16300
O1492       O  0.89603619  0.39256098  0.55463774    -0.59700
H1493       H  0.83185581  0.36771364  0.57021933     0.14800
H1494       H  0.71431369  0.42136367  0.58653459     0.46700
H1495       H  0.78791735  0.43653347  0.53479917     0.42000
H1496       H  0.91258784  0.40643475  0.56518107     0.45500
H1497       H  0.75713245  0.33313039  0.54021139     0.37000
C1498       C  0.59525035  0.23339800  0.57137271    -0.27300
C1499       C  0.61252241  0.21286197  0.57416990     0.02300
C1500       C  0.64444213  0.22746621  0.58531176     0.30400
C1501       C  0.65990173  0.26316723  0.59245255    -0.19100
C1502       C  0.64555735  0.28622309  0.58770255    -0.28500
C1503       C  0.61045636  0.26900939  0.57841773     0.44400
C1504       C  0.59750911  0.17696515  0.56466546     0.05600
O1505       O  0.66131297  0.20744419  0.58889124    -0.57000
H1506       H  0.68490046  0.27398717  0.60074802     0.18600
O1507       O  0.58947665  0.28540437  0.57676912    -0.63700
H1508       H  0.56970103  0.22183998  0.56347744     0.17000
C1509       C  0.56026283  0.14931319  0.56673716     0.29300
C1510       C  0.54546948  0.11754941  0.55580748    -0.24600
C1511       C  0.56746640  0.11255604  0.54283562    -0.23900
C1512       C  0.60498249  0.13992309  0.54107321     0.40700
C1513       C  0.61971088  0.17174154  0.55198080    -0.26400
O1514       O  0.53795697  0.15335940  0.57920804    -0.58200
H1515       H  0.51666195  0.09674446  0.55748827     0.16300
O1516       O  0.62717314  0.13656723  0.52824505    -0.59700
H1517       H  0.64823067  0.19308342  0.55000304     0.14800
H1518       H  0.56982620  0.27348261  0.58627792     0.46700
H1519       H  0.54154557  0.14369796  0.59119036     0.42000
H1520       H  0.62389022  0.14733691  0.51656925     0.45500
H1521       H  0.64954003  0.19339137  0.60042502     0.37000
C1522       C  0.62016990  0.43684118  0.54967445    -0.27300
C1523       C  0.59862346  0.40588006  0.56079025     0.02300
C1524       C  0.56045892  0.39219257  0.56224410     0.30400
C1525       C  0.54410500  0.40879791  0.55211102    -0.19100
C1526       C  0.56549719  0.43930801  0.54055028    -0.28500
C1527       C  0.60400451  0.45355491  0.53959627     0.44400
C1528       C  0.61594251  0.38657860  0.56964991     0.05600
O1529       O  0.53882001  0.36208999  0.57316876    -0.57000
H1530       H  0.51458716  0.39758112  0.55317506     0.18600
O1531       O  0.62605210  0.48312897  0.52843348    -0.63700
H1532       H  0.64961049  0.44761583  0.54849820     0.17000
C1533       C  0.63135306  0.37052437  0.55860619     0.29300
C1534       C  0.64769573  0.35233491  0.56697997    -0.24600
C1535       C  0.64875484  0.34880239  0.58661166    -0.23900
C1536       C  0.63398086  0.36632382  0.59767740     0.40700
C1537       C  0.61763962  0.38464986  0.58907085    -0.26400
O1538       O  0.62917426  0.37115092  0.53952149    -0.58200
H1539       H  0.65877413  0.33972477  0.55797769     0.16300
O1540       O  0.63690644  0.36781786  0.61673362    -0.59700
H1541       H  0.60664085  0.39792224  0.59765535     0.14800
H1542       H  0.62613235  0.47247137  0.51616053     0.46700
H1543       H  0.65382326  0.39100262  0.53540865     0.42000
H1544       H  0.61127427  0.35311686  0.62144769     0.45500
H1545       H  0.53169929  0.34051856  0.56504964     0.37000
C1546       C  0.98934075  0.46757354  0.98098751    -0.27300
C1547       C  0.49982220  0.00444905  0.99006998     0.02300
C1548       C  0.51163370  0.03522077  0.97848741     0.30400
C1549       C  0.51183754  0.03138054  0.95912104    -0.19100
C1550       C  0.49976772  0.99679822  0.95058801    -0.28500
C1551       C  0.99116952  0.46508704  0.96154638     0.44400
C1552       C  0.50026755  0.00766429  0.01060347     0.05600
O1553       O  0.52326484  0.06925894  0.98597380    -0.57000
H1554       H  0.52107161  0.05572767  0.95056025     0.18600
O1555       O  0.98421802  0.43209131  0.95435349    -0.63700
H1556       H  0.98085876  0.44323977  0.98946731     0.17000
C1557       C  0.96602759  0.49215223  0.01979180     0.29300
C1558       C  0.96567895  0.49219652  0.03935655    -0.24600
C1559       C  0.50100867  0.00745576  0.05032271    -0.23900
C1560       C  0.53429437  0.02199047  0.03990873     0.40700
C1561       C  0.53354677  0.02138848  0.02036666    -0.26400
O1562       O  0.93391616  0.48160909  0.01012403    -0.58200
H1563       H  0.93990412  0.48508360  0.04599392     0.16300
O1564       O  0.56773493  0.03550724  0.04876418    -0.59700
H1565       H  0.55910057  0.03119127  0.01278963     0.14800
H1566       H  0.00487322  0.42878895  0.95861841     0.46700
H1567       H  0.93382530  0.50473836  0.00762065     0.42000
H1568       H  0.58018304  0.06261365  0.04735495     0.45500
H1569       H  0.50083542  0.07141036  0.98650579     0.37000
C1570       C  0.69995790  0.33952314  0.68803155    -0.27300
C1571       C  0.66767057  0.32755331  0.67737502     0.02300
C1572       C  0.63419437  0.31506659  0.68716199     0.30400
C1573       C  0.63325136  0.31247675  0.70665690    -0.19100
C1574       C  0.66587700  0.32680470  0.71746300    -0.28500
C1575       C  0.69963133  0.34091995  0.70754169     0.44400
C1576       C  0.66900511  0.32732430  0.65633252     0.05600
O1577       O  0.60187801  0.30567758  0.67796923    -0.57000
H1578       H  0.60634083  0.29941477  0.71293436     0.18600
O1579       O  0.73283496  0.35688885  0.71683892    -0.63700
H1580       H  0.72603809  0.34777940  0.68141352     0.17000
C1581       C  0.69983692  0.35359653  0.64606256     0.29300
C1582       C  0.70041324  0.35132790  0.62653741    -0.24600
C1583       C  0.66882995  0.32654375  0.61609580    -0.23900
C1584       C  0.63750177  0.30100915  0.62670713     0.40700
C1585       C  0.63902189  0.30004955  0.64618618    -0.26400
O1586       O  0.72884677  0.38313870  0.65474096    -0.58200
H1587       H  0.72602485  0.37037528  0.62002934     0.16300
O1588       O  0.60484022  0.27628550  0.61833879    -0.59700
H1589       H  0.61570261  0.27780925  0.65326661     0.14800
H1590       H  0.74228959  0.33972328  0.71536092     0.46700
H1591       H  0.75066616  0.38035591  0.65273190     0.42000
H1592       H  0.58836428  0.28657054  0.61989720     0.45500
H1593       H  0.60254136  0.32925633  0.67576397     0.37000
C1594       C  0.97790346  0.41100117  0.89710457    -0.27300
C1595       C  0.94139734  0.38692674  0.90235510     0.02300
C1596       C  0.92524387  0.39823440  0.91583145     0.30400
C1597       C  0.94568170  0.43323122  0.92383024    -0.19100
C1598       C  0.98324429  0.45770527  0.91927100    -0.28500
C1599       C  0.99873117  0.44602674  0.90505444     0.44400
C1600       C  0.92009247  0.35109920  0.89265592     0.05600
O1601       O  0.88919769  0.37561796  0.92099350    -0.57000
H1602       H  0.93207710  0.44139673  0.93389553     0.18600
O1603       O  0.53313880  0.46973234  0.89771731    -0.63700
H1604       H  0.99019832  0.40294591  0.88623889     0.17000
C1605       C  0.91449908  0.35000500  0.87327342     0.29300
C1606       C  0.89739237  0.31632337  0.86388672    -0.24600
C1607       C  0.88570234  0.28298226  0.87348028    -0.23900
C1608       C  0.89006829  0.28409974  0.89310028     0.40700
C1609       C  0.90722528  0.31798712  0.90248948    -0.26400
O1610       O  0.92525882  0.38183801  0.86341824    -0.58200
H1611       H  0.89385240  0.31655162  0.84892272     0.16300
O1612       O  0.87882448  0.25250952  0.90321926    -0.59700
H1613       H  0.91138166  0.31848936  0.91743634     0.14800
H1614       H  0.54910359  0.45883668  0.89947169     0.46700
H1615       H  0.94847303  0.38740944  0.85711960     0.42000
H1616       H  0.85343784  0.24485382  0.90734414     0.45500
H1617       H  0.87451387  0.38151619  0.91225165     0.37000
C1618       C  0.64744914  0.07368936  0.87986172    -0.27300
C1619       C  0.65047113  0.07551959  0.89933965     0.02300
C1620       C  0.68563422  0.09091568  0.90763585     0.30400
C1621       C  0.71722417  0.10523020  0.89639077    -0.19100
C1622       C  0.71431349  0.10429123  0.87677227    -0.28500
C1623       C  0.67870660  0.08767283  0.86861508     0.44400
C1624       C  0.61623241  0.06107660  0.91045580     0.05600
O1625       O  0.68946222  0.09255954  0.92666647    -0.57000
H1626       H  0.74405038  0.11739821  0.90308139     0.18600
O1627       O  0.67388205  0.08538559  0.84963382    -0.63700
H1628       H  0.62048166  0.06118059  0.87327765     0.17000
C1629       C  0.59184281  0.07409200  0.90719294     0.29300
C1630       C  0.55627164  0.05536759  0.91461253    -0.24600
C1631       C  0.54299618  0.02157228  0.92421246    -0.23900
C1632       C  0.56990742  0.01261989  0.93015283     0.40700
C1633       C  0.60583700  0.03171850  0.92287729    -0.26400
O1634       O  0.60252020  0.10501370  0.89654127    -0.58200
H1635       H  0.53906935  0.06720263  0.91210235     0.16300
O1636       O  0.56071836  0.47864854  0.93768336    -0.59700
H1637       H  0.62475607  0.02202426  0.92601070     0.14800
H1638       H  0.67048851  0.06108661  0.84620624     0.46700
H1639       H  0.58920364  0.09601009  0.88450750     0.42000
H1640       H  0.57173577  0.48654006  0.95028419     0.45500
H1641       H  0.69060732  0.11578018  0.93029449     0.37000
C1642       C  0.95947128  0.03618056  0.89189972    -0.27300
C1643       C  0.93906624  0.04690735  0.90283346     0.02300
C1644       C  0.93565455  0.03887537  0.92202366     0.30400
C1645       C  0.95394624  0.02194784  0.93006665    -0.19100
C1646       C  0.97706873  0.01361515  0.91939966    -0.28500
C1647       C  0.97731941  0.01893281  0.89978325     0.44400
C1648       C  0.92033888  0.06482160  0.89358136     0.05600
O1649       O  0.91293310  0.04567663  0.93284415    -0.57000
H1650       H  0.94924836  0.01509185  0.94470333     0.18600
O1651       O  0.49757822  0.00633782  0.88854356    -0.63700
H1652       H  0.96187404  0.04143261  0.87701785     0.17000
C1653       C  0.92490798  0.09859576  0.89984265     0.29300
C1654       C  0.90856935  0.11561244  0.88997099    -0.24600
C1655       C  0.88867726  0.10007904  0.87344596    -0.23900
C1656       C  0.88400059  0.06626133  0.86728173     0.40700
C1657       C  0.89953321  0.04892912  0.87734599    -0.26400
O1658       O  0.94640908  0.11593390  0.91513465    -0.58200
H1659       H  0.91264250  0.14169739  0.89486017     0.16300
O1660       O  0.86422316  0.04978248  0.85139717    -0.59700
H1661       H  0.89556012  0.02296434  0.87231561     0.14800
H1662       H  0.47918943  0.98371010  0.88194961     0.46700
H1663       H  0.97169622  0.13168605  0.91020181     0.42000
H1664       H  0.83820380  0.03486164  0.85549963     0.45500
H1665       H  0.92942303  0.06477520  0.94189148     0.37000
C1666       C  0.77442492  0.25755642  0.76474956    -0.27300
C1667       C  0.73643296  0.24439932  0.76570550     0.02300
C1668       C  0.71412113  0.21334513  0.77683782     0.30400
C1669       C  0.73027902  0.19729361  0.78760377    -0.19100
C1670       C  0.76876993  0.21226041  0.78773276    -0.28500
C1671       C  0.79071395  0.24214505  0.77577464     0.44400
C1672       C  0.72136005  0.26608662  0.75702570     0.05600
O1673       O  0.67679346  0.19959573  0.77801533    -0.57000
H1674       H  0.71280639  0.17421567  0.79655568     0.18600
O1675       O  0.82817435  0.25661423  0.77473527    -0.63700
H1676       H  0.79183453  0.28099207  0.75597604     0.17000
C1677       C  0.73664942  0.30341338  0.76155497     0.29300
C1678       C  0.72064852  0.32318425  0.75478958    -0.24600
C1679       C  0.68737786  0.30597021  0.74439969    -0.23900
C1680       C  0.67429211  0.26922841  0.73836789     0.40700
C1681       C  0.69103431  0.24962716  0.74485846    -0.26400
O1682       O  0.76679036  0.32075845  0.77314088    -0.58200
H1683       H  0.73476775  0.35211029  0.75805401     0.16300
O1684       O  0.64416850  0.25182883  0.72675512    -0.59700
H1685       H  0.67969918  0.22120024  0.74074867     0.14800
H1686       H  0.83912223  0.27908793  0.78254472     0.46700
H1687       H  0.75654161  0.31625653  0.78592931     0.42000
H1688       H  0.62374630  0.23341676  0.73460950     0.45500
H1689       H  0.67377732  0.21421074  0.78790623     0.37000
C1690       C  0.00916768  0.27885564  0.78445370    -0.27300
C1691       C  0.51860476  0.25875304  0.77375923     0.02300
C1692       C  0.99240482  0.21979774  0.77093656     0.30400
C1693       C  0.95921384  0.20347542  0.78084336    -0.19100
C1694       C  0.95059746  0.22444255  0.79273323    -0.28500
C1695       C  0.97595351  0.26258388  0.79439337     0.44400
C1696       C  0.55510952  0.27537135  0.76469867     0.05600
O1697       O  0.49847672  0.20088048  0.75831207    -0.57000
H1698       H  0.94017272  0.17424838  0.77922673     0.18600
O1699       O  0.96922009  0.28406725  0.80614964    -0.63700
H1700       H  0.53195621  0.30772544  0.78925147     0.17000
C1701       C  0.56772630  0.30537432  0.75247644     0.29300
C1702       C  0.60292397  0.32068024  0.74457850    -0.24600
C1703       C  0.62637493  0.30618548  0.74818058    -0.23900
C1704       C  0.61395977  0.27773316  0.76201490     0.40700
C1705       C  0.57841473  0.26197662  0.76935018    -0.26400
O1706       O  0.54596232  0.32008976  0.74823406    -0.58200
H1707       H  0.61201986  0.34416164  0.73539992     0.16300
O1708       O  0.63645746  0.26630432  0.76968911    -0.59700
H1709       H  0.56958886  0.24007376  0.77956336     0.14800
H1710       H  0.97929348  0.28236390  0.81842009     0.46700
H1711       H  0.53160703  0.30648749  0.73706340     0.42000
H1712       H  0.64526299  0.27960811  0.78168740     0.45500
H1713       H  0.49058381  0.20581825  0.74610471     0.37000
C1714       C  0.71052251  0.97994513  0.78663859    -0.27300
C1715       C  0.73547321  0.47150025  0.77510580     0.02300
C1716       C  0.77103537  0.48577389  0.78268690     0.30400
C1717       C  0.78629074  0.02872037  0.78297059    -0.19100
C1718       C  0.76550557  0.03861546  0.79432972    -0.28500
C1719       C  0.72709682  0.01384416  0.79594269     0.44400
C1720       C  0.71686254  0.43523031  0.76588766     0.05600
O1721       O  0.78971807  0.46707565  0.78082214    -0.57000
H1722       H  0.81573456  0.04712850  0.78140979     0.18600
O1723       O  0.70567739  0.02169531  0.80716981    -0.63700
H1724       H  0.68115445  0.96110440  0.78821106     0.17000
C1725       C  0.70445619  0.40298841  0.77635387     0.29300
C1726       C  0.68790382  0.36895621  0.76743374    -0.24600
C1727       C  0.68434690  0.36574119  0.74776139    -0.23900
C1728       C  0.69460025  0.39868339  0.73750828     0.40700
C1729       C  0.71114386  0.43278174  0.74660938    -0.26400
O1730       O  0.70862091  0.40445916  0.79537244    -0.58200
H1731       H  0.67867358  0.34468473  0.77600484     0.16300
O1732       O  0.68766191  0.39847846  0.71880892    -0.59700
H1733       H  0.71946254  0.45755445  0.73853079     0.14800
H1734       H  0.69428362  0.03186117  0.79868111     0.46700
H1735       H  0.68650032  0.40423570  0.80029113     0.42000
H1736       H  0.66346227  0.39721557  0.71793702     0.45500
H1737       H  0.78639743  0.45410452  0.79286377     0.37000
O1738       O  0.77142221  0.66747143  0.80805536    -0.78200
C1739       C  0.78789871  0.57457352  0.80473830     0.82900
O1740       O  0.78087799  0.63594807  0.87248006    -0.79300
O1741       O  0.87404084  0.61481016  0.84604940    -0.80800
O1742       O  0.90496084  0.72284895  0.80938089    -0.80600
O1743       O  0.82480900  0.72030378  0.80725667    -0.79200
Zn1744     Zn  0.78118378  0.63466336  0.82498035     1.55700
O1745       O  0.90340258  0.66936007  0.80795826    -0.80600
Cd1746     Cd  0.85874825  0.71159878  0.82451125     1.59700
Cd1747     Cd  0.83421077  0.66194442  0.86198120     1.59600
O1748       O  0.87525556  0.74909492  0.84598786    -0.80600
O1749       O  0.83212056  0.66022541  0.83393198    -1.91100
Cd1750     Cd  0.85763660  0.63478552  0.82407479     1.59900
O1751       O  0.86128003  0.71601564  0.87205426    -0.80500
O1752       O  0.82224168  0.58949155  0.80836825    -0.79200
C1753       C  0.74933927  0.62104576  0.86448902     0.83300
C1754       C  0.79126799  0.70043486  0.80221747     0.83000
O1755       O  0.76913483  0.58873378  0.81040739    -0.78100
C1756       C  0.91846617  0.70345087  0.80387459     0.83800
O1757       O  0.74635368  0.61935359  0.84677114    -0.78200
C1758       C  0.87493921  0.74703836  0.86373137     0.83900
C1759       C  0.87317490  0.61648570  0.86375823     0.84300
O1760       O  0.86010037  0.63416929  0.87201317    -0.80700
C1761       C  0.66762285  0.82491203  0.73926832    -0.02200
C1762       C  0.50308972  0.49659046  0.92895826    -0.02200
O1763       O  0.93514857  0.98728238  0.52446713    -0.78200
C1764       C  0.55067572  0.58132563  0.52904952     0.82900
O1765       O  0.97977958  0.52769067  0.46231174    -0.79300
O1766       O  0.59236121  0.53675422  0.48544139    -0.80800
O1767       O  0.50884325  0.93172215  0.52721689    -0.80600
O1768       O  0.93179224  0.93302665  0.52414102    -0.79200
Zn1769     Zn  0.98138649  0.52210604  0.50994564     1.55700
O1770       O  0.56273094  0.98420910  0.52871654    -0.80600
Cd1771     Cd  0.97771353  0.94391320  0.50851454     1.59700
Cd1772     Cd  0.00554837  0.99738313  0.47133538     1.59600
O1773       O  0.95936696  0.90799728  0.48612825    -0.80600
O1774       O  0.00463757  0.99596020  0.49943814    -1.91100
Cd1775     Cd  0.55669575  0.52258006  0.50741659     1.59900
O1776       O  0.97567346  0.94391240  0.46092696    -0.80500
O1777       O  0.57048580  0.56902275  0.52261536    -0.79200
C1778       C  0.96504618  0.54293131  0.47137846     0.83300
C1779       C  0.91897949  0.95341157  0.52904831     0.83000
O1780       O  0.51620768  0.56583379  0.52542988    -0.78100
C1781       C  0.54167027  0.95080180  0.53351391     0.83800
O1782       O  0.96463690  0.54260142  0.48914305    -0.78200
C1783       C  0.95996625  0.91202413  0.46845184     0.83900
C1784       C  0.58932981  0.53607200  0.46776912     0.84300
O1785       O  0.55806141  0.52425728  0.45973087    -0.80700
C1786       C  0.84006818  0.66578903  0.40405057    -0.02200
C1787       C  0.66793489  0.82702899  0.59440355    -0.02200
O1788       O  0.73481829  0.89449760  0.13871176    -0.78200
C1789       C  0.62037269  0.87384659  0.13377763     0.82900
O1790       O  0.69048861  0.88857497  0.20175453    -0.79300
O1791       O  0.57608746  0.78552979  0.17635460    -0.80800
O1792       O  0.65856323  0.76496689  0.13852784    -0.80600
O1793       O  0.73859653  0.84390981  0.14144659    -0.79200
Zn1794     Zn  0.68990355  0.88448133  0.15411722     1.55700
O1795       O  0.60516616  0.76428859  0.13793133    -0.80600
Cd1796     Cd  0.69153190  0.80858727  0.15616000     1.59700
Cd1797     Cd  0.66391713  0.83503903  0.19222371     1.59600
O1798       O  0.70777621  0.78980227  0.17911295    -0.80600
O1799       O  0.66525734  0.83462465  0.16425004    -1.91100
Cd1800     Cd  0.61347217  0.80704310  0.15481079     1.59900
O1801       O  0.69065692  0.80934341  0.20376238    -0.80500
O1802       O  0.60099513  0.84066480  0.13928257    -0.79200
C1803       C  0.70640834  0.91937766  0.19324239     0.83300
C1804       C  0.75119537  0.87656649  0.13535538     0.83000
O1805       O  0.65454362  0.89320743  0.13811301    -0.78100
C1806       C  0.62530110  0.75132236  0.13287257     0.83800
O1807       O  0.70783485  0.92107495  0.17545328    -0.78200
C1808       C  0.70617763  0.79285944  0.19674452     0.83900
C1809       C  0.57883250  0.78957217  0.19398973     0.84300
O1810       O  0.60999238  0.80850863  0.20211764    -0.80700
C1811       C  0.49977683  0.50421812  0.07239967    -0.02200
C1812       C  0.83047869  0.67123352  0.26058023    -0.02200
C1813       C  0.83056388  0.94162274  0.10366129    -0.27300
C1814       C  0.85441694  0.92752005  0.10530756     0.02300
C1815       C  0.84376192  0.89612378  0.11640766     0.30400
C1816       C  0.80991129  0.87961156  0.12582133    -0.19100
C1817       C  0.78613886  0.89400008  0.12447735    -0.28500
C1818       C  0.79674859  0.92522020  0.11310663     0.44400
C1819       C  0.89157032  0.94773644  0.09666873     0.05600
O1820       O  0.86733860  0.88290180  0.11912732    -0.57000
H1821       H  0.80277413  0.85598332  0.13462695     0.18600
O1822       O  0.77408366  0.93960877  0.11083545    -0.63700
H1823       H  0.83845602  0.96581358  0.09516479     0.17000
C1824       C  0.90332989  0.93139175  0.08350142     0.29300
C1825       C  0.93887956  0.95151917  0.07591679    -0.24600
C1826       C  0.96356651  0.98874665  0.08071765    -0.23900
C1827       C  0.95173274  0.00410784  0.09494755     0.40700
C1828       C  0.91603872  0.98377114  0.10233644    -0.26400
O1829       O  0.87979894  0.89617485  0.07747747    -0.58200
H1830       H  0.94720735  0.93800066  0.06588800     0.16300
O1831       O  0.97410798  0.53455635  0.10331283    -0.59700
H1832       H  0.90781932  0.99592623  0.11319711     0.14800
H1833       H  0.78370263  0.96060093  0.11961108     0.46700
H1834       H  0.89047185  0.88135258  0.08217477     0.42000
H1835       H  0.96336124  0.55073387  0.10217489     0.45500
H1836       H  0.85562180  0.85879533  0.11268654     0.37000
C1837       C  0.53383876  0.60838300  0.07598343    -0.27300
C1838       C  0.56491880  0.62094416  0.08754181     0.02300
C1839       C  0.57811563  0.59717830  0.09194496     0.30400
C1840       C  0.55854406  0.56059147  0.08615913    -0.19100
C1841       C  0.52435793  0.54604296  0.07664853    -0.28500
C1842       C  0.51398517  0.57155566  0.07022572     0.44400
C1843       C  0.58022687  0.65675410  0.09710053     0.05600
O1844       O  0.60845695  0.60859409  0.10326178    -0.57000
H1845       H  0.57048669  0.54385736  0.08958742     0.18600
O1846       O  0.98095765  0.55928949  0.06024423    -0.63700
H1847       H  0.52399460  0.62681680  0.07206790     0.17000
C1848       C  0.61790454  0.68369480  0.09607309     0.29300
C1849       C  0.63227980  0.71470835  0.10764332    -0.24600
C1850       C  0.60937700  0.71937948  0.12015835    -0.23900
C1851       C  0.57129923  0.69317232  0.12043780     0.40700
C1852       C  0.55712354  0.66213465  0.10905005    -0.26400
O1853       O  0.64049769  0.68016933  0.08354413    -0.58200
H1854       H  0.66140216  0.73508776  0.10685001     0.16300
O1855       O  0.54806779  0.69635691  0.13264692    -0.59700
H1856       H  0.52814029  0.64138818  0.11010254     0.14800
H1857       H  0.96206506  0.55934443  0.06842964     0.46700
H1858       H  0.65948177  0.67855580  0.09112188     0.42000
H1859       H  0.53565144  0.70691519  0.12519767     0.45500
H1860       H  0.62793406  0.60954570  0.09513255     0.37000
C1861       C  0.54796322  0.88795540  0.10853869    -0.27300
C1862       C  0.56902681  0.92482337  0.10309276     0.02300
C1863       C  0.60714266  0.94432570  0.10679371     0.30400
C1864       C  0.62363164  0.92724588  0.11638328    -0.19100
C1865       C  0.60255329  0.89046346  0.12242189    -0.28500
C1866       C  0.56434044  0.87062900  0.11802185     0.44400
C1867       C  0.55064982  0.94377437  0.09500326     0.05600
O1868       O  0.62827228  0.98056709  0.10169086    -0.57000
H1869       H  0.65292191  0.94317496  0.11940646     0.18600
O1870       O  0.54230707  0.83472668  0.12349113    -0.63700
H1871       H  0.51851079  0.87280124  0.10581582     0.17000
C1872       C  0.54381234  0.94310782  0.07582179     0.29300
C1873       C  0.52756955  0.96258951  0.06855639    -0.24600
C1874       C  0.51912220  0.98456969  0.08009239    -0.23900
C1875       C  0.52409203  0.98271106  0.09968316     0.40700
C1876       C  0.53994920  0.96284973  0.10680935    -0.26400
O1877       O  0.55249036  0.92307095  0.06406640    -0.58200
H1878       H  0.52147192  0.95980680  0.05381392     0.16300
O1879       O  0.51335613  0.00019535  0.11206177    -0.59700
H1880       H  0.54417416  0.96257837  0.12172289     0.14800
H1881       H  0.54167409  0.81984406  0.11268172     0.46700
H1882       H  0.57780524  0.94057005  0.05964165     0.42000
H1883       H  0.03629374  0.01920599  0.11788014     0.45500
H1884       H  0.63481804  0.98010472  0.08847690     0.37000
C1885       C  0.75722109  0.70079126  0.25360435    -0.27300
C1886       C  0.77717569  0.73328996  0.24329280     0.02300
C1887       C  0.81559692  0.74963252  0.24210256     0.30400
C1888       C  0.83300783  0.73128622  0.24915874    -0.19100
C1889       C  0.81237692  0.69520856  0.25656064    -0.28500
C1890       C  0.77477501  0.68246478  0.26083021     0.44400
C1891       C  0.75774649  0.74762135  0.23184278     0.05600
O1892       O  0.83626383  0.78321651  0.23359760    -0.57000
H1893       H  0.86270798  0.74520128  0.24798884     0.18600
O1894       O  0.75399236  0.65009249  0.27031984    -0.63700
H1895       H  0.72766254  0.68857222  0.25521315     0.17000
C1896       C  0.75581100  0.74293922  0.21239796     0.29300
C1897       C  0.73878463  0.75750573  0.20130023    -0.24600
C1898       C  0.72324925  0.77703404  0.20923654    -0.23900
C1899       C  0.72512235  0.78153349  0.22886836     0.40700
C1900       C  0.74200509  0.76656875  0.23999312    -0.26400
O1901       O  0.77096054  0.72443259  0.20406523    -0.58200
H1902       H  0.73795637  0.75353535  0.18635920     0.16300
O1903       O  0.71075841  0.80056375  0.23738502    -0.59700
H1904       H  0.74344097  0.77036908  0.25496665     0.14800
H1905       H  0.75313078  0.65746880  0.28332751     0.46700
H1906       H  0.75142460  0.69812056  0.20451564     0.42000
H1907       H  0.73157349  0.82627425  0.23824328     0.45500
H1908       H  0.84116861  0.77769016  0.22086814     0.37000
C1909       C  0.74106733  0.98783316  0.23364097    -0.27300
C1910       C  0.75751511  0.52745273  0.22246033     0.02300
C1911       C  0.75261385  0.52480996  0.20298343     0.30400
C1912       C  0.73987428  0.98804595  0.19467957    -0.19100
C1913       C  0.72368175  0.95416238  0.20417956    -0.28500
C1914       C  0.72446207  0.95437879  0.22393358     0.44400
C1915       C  0.77526125  0.56365072  0.23202531     0.05600
O1916       O  0.76551278  0.55593451  0.19221604    -0.57000
H1917       H  0.74007747  0.98894035  0.17958267     0.18600
O1918       O  0.70954050  0.92222346  0.23395428    -0.63700
H1919       H  0.74137731  0.98756861  0.24874986     0.17000
C1920       C  0.76167776  0.58782259  0.22989267     0.29300
C1921       C  0.77940919  0.62212126  0.23867023    -0.24600
C1922       C  0.80985772  0.63275655  0.25085987    -0.23900
C1923       C  0.82357733  0.60810413  0.25262854     0.40700
C1924       C  0.80630183  0.57419902  0.24333764    -0.26400
O1925       O  0.73097097  0.57827501  0.21916658    -0.58200
H1926       H  0.76926246  0.64033075  0.23521862     0.16300
O1927       O  0.85462945  0.61747217  0.26307298    -0.59700
H1928       H  0.81751050  0.55613184  0.24486488     0.14800
H1929       H  0.68403144  0.91617916  0.23690520     0.46700
H1930       H  0.70983298  0.56590262  0.22785028     0.42000
H1931       H  0.84656704  0.59943362  0.27345742     0.45500
H1932       H  0.74327711  0.55487977  0.18668912     0.37000
C1933       C  0.90936871  0.71161807  0.22414506    -0.27300
C1934       C  0.94094171  0.72142906  0.23488302     0.02300
C1935       C  0.93709964  0.71489200  0.25421026     0.30400
C1936       C  0.90217296  0.69898680  0.26249659    -0.19100
C1937       C  0.87003102  0.68970968  0.25188850    -0.28500
C1938       C  0.87444431  0.69566445  0.23227226     0.44400
C1939       C  0.97744938  0.73790831  0.22554199     0.05600
O1940       O  0.96723345  0.72310423  0.26513404    -0.57000
H1941       H  0.90073386  0.69285775  0.27719484     0.18600
O1942       O  0.84443238  0.68536871  0.22082207    -0.63700
H1943       H  0.91171244  0.71648442  0.20923319     0.17000
C1944       C  0.98200721  0.72171132  0.20938974     0.29300
C1945       C  0.51536808  0.73721310  0.19934641    -0.24600
C1946       C  0.54460428  0.77145348  0.20514031    -0.23900
C1947       C  0.54009385  0.78819273  0.22107281     0.40700
C1948       C  0.50631814  0.77118032  0.23056270    -0.26400
O1949       O  0.95395325  0.68869007  0.20290221    -0.58200
H1950       H  0.51845498  0.72370925  0.18725506     0.16300
O1951       O  0.56767056  0.82214375  0.22680713    -0.59700
H1952       H  0.50278178  0.78513871  0.24230903     0.14800
H1953       H  0.84750470  0.70846755  0.21540405     0.46700
H1954       H  0.95628942  0.66969683  0.20999535     0.42000
H1955       H  0.58058446  0.81713218  0.23701088     0.45500
H1956       H  0.96969854  0.70093104  0.26466436     0.37000
C1957       C  0.81294272  0.63601202  0.31244125    -0.27300
C1958       C  0.83521700  0.66878484  0.32201472     0.02300
C1959       C  0.85375684  0.70181474  0.31198262     0.30400
C1960       C  0.85129409  0.70153256  0.29250810    -0.19100
C1961       C  0.83086088  0.66842498  0.28232696    -0.28500
C1962       C  0.80980359  0.63544107  0.29290644     0.44400
C1963       C  0.83732229  0.66842278  0.34260585     0.05600
O1964       O  0.87482404  0.73455258  0.32109578    -0.57000
H1965       H  0.86617602  0.72754090  0.28517620     0.18600
O1966       O  0.78331172  0.60336196  0.28476073    -0.63700
H1967       H  0.79692281  0.61071527  0.32024387     0.17000
C1968       C  0.81496163  0.67667703  0.35352053     0.29300
C1969       C  0.81726519  0.67625451  0.37296980    -0.24600
C1970       C  0.84064544  0.66604464  0.38226693    -0.23900
C1971       C  0.86482152  0.65988604  0.37090785     0.40700
C1972       C  0.86212924  0.66021238  0.35136014    -0.26400
O1973       O  0.79064998  0.68519333  0.34527846    -0.58200
H1974       H  0.79959738  0.68284702  0.38096995     0.16300
O1975       O  0.89207510  0.65484399  0.37843350    -0.59700
H1976       H  0.88022214  0.65481957  0.34295642     0.14800
H1977       H  0.78922837  0.58415107  0.28838795     0.46700
H1978       H  0.76784746  0.66118819  0.34311857     0.42000
H1979       H  0.91581670  0.67590373  0.37411214     0.45500
H1980       H  0.85772545  0.74369035  0.32377884     0.37000
C1981       C  0.68660498  0.56148351  0.45415675    -0.27300
C1982       C  0.69181973  0.58138912  0.43761582     0.02300
C1983       C  0.66193641  0.58378138  0.43012103     0.30400
C1984       C  0.62800347  0.56759327  0.43955412    -0.19100
C1985       C  0.62353317  0.54939535  0.45665764    -0.28500
C1986       C  0.65301875  0.54564751  0.46364212     0.44400
C1987       C  0.72911438  0.60110795  0.42898752     0.05600
O1988       O  0.66601918  0.60304408  0.41397479    -0.57000
H1989       H  0.60572105  0.57065928  0.43389627     0.18600
O1990       O  0.64951868  0.52688142  0.47991063    -0.63700
H1991       H  0.70897170  0.55866901  0.45992730     0.17000
C1992       C  0.76020924  0.62537205  0.43959596     0.29300
C1993       C  0.79507139  0.64392300  0.43140560    -0.24600
C1994       C  0.80025810  0.64105617  0.41213892    -0.23900
C1995       C  0.76915204  0.61372977  0.40200049     0.40700
C1996       C  0.73406692  0.59505179  0.41031479    -0.26400
O1997       O  0.75677892  0.63190637  0.45798130    -0.58200
H1998       H  0.81815275  0.66243409  0.44010071     0.16300
O1999       O  0.77249105  0.60354044  0.38433309    -0.59700
H2000       H  0.71069401  0.57495633  0.40222417     0.14800
H2001       H  0.63867147  0.50078720  0.47616934     0.46700
H2002       H  0.75174827  0.65250855  0.45783100     0.42000
H2003       H  0.77199023  0.57987725  0.38581549     0.45500
H2004       H  0.67630072  0.62894440  0.41793048     0.37000
C2005       C  0.92361968  0.84808852  0.42614628    -0.27300
C2006       C  0.90607580  0.81351738  0.43480375     0.02300
C2007       C  0.90655375  0.81134638  0.45435725     0.30400
C2008       C  0.92427800  0.84350269  0.46501855    -0.19100
C2009       C  0.94169650  0.87846709  0.45651023    -0.28500
C2010       C  0.94126169  0.88042126  0.43679372     0.44400
C2011       C  0.88810075  0.77946693  0.42355342     0.05600
O2012       O  0.89100459  0.77776757  0.46311905    -0.57000
H2013       H  0.92436745  0.84086922  0.48004828     0.18600
O2014       O  0.95757355  0.91366085  0.42772231    -0.63700
H2015       H  0.92352183  0.85000043  0.41107669     0.17000
C2016       C  0.84978060  0.75571438  0.42420251     0.29300
C2017       C  0.83398802  0.72056508  0.41640394    -0.24600
C2018       C  0.85618918  0.70726288  0.40898321    -0.23900
C2019       C  0.89395656  0.73368051  0.40574297     0.40700
C2020       C  0.90962158  0.76918635  0.41327971    -0.26400
O2021       O  0.82758668  0.76675852  0.43244092    -0.58200
H2022       H  0.80426001  0.70363091  0.41677378     0.16300
O2023       O  0.91620900  0.72441783  0.39614780    -0.59700
H2024       H  0.93905548  0.78799441  0.41197618     0.14800
H2025       H  0.98271761  0.91883704  0.42454985     0.46700
H2026       H  0.81832420  0.75192171  0.44401035     0.42000
H2027       H  0.93416536  0.72491223  0.40536494     0.45500
H2028       H  0.86769991  0.77394932  0.46858701     0.37000
C2029       C  0.90305736  0.64711104  0.43746355    -0.27300
C2030       C  0.89629321  0.61294477  0.43109657     0.02300
C2031       C  0.87090381  0.59581480  0.41648134     0.30400
C2032       C  0.85357270  0.61342005  0.40820984    -0.19100
C2033       C  0.86210301  0.64921594  0.41349542    -0.28500
C2034       C  0.88584601  0.66488597  0.42930033     0.44400
C2035       C  0.91363520  0.59442439  0.44104737     0.05600
O2036       O  0.86110285  0.56089302  0.41097347    -0.57000
H2037       H  0.83350708  0.59908323  0.39728738     0.18600
O2038       O  0.88928320  0.69507847  0.43837334    -0.63700
H2039       H  0.92109031  0.65975206  0.44937402     0.17000
C2040       C  0.93469688  0.58211239  0.43162812     0.29300
C2041       C  0.95114832  0.56534718  0.44159383    -0.24600
C2042       C  0.94754873  0.56107056  0.46109529    -0.23900
C2043       C  0.92672396  0.57392761  0.47047806     0.40700
C2044       C  0.91012196  0.59033254  0.46046970    -0.26400
O2045       O  0.94000204  0.58695026  0.41274519    -0.58200
H2046       H  0.96712883  0.55605350  0.43400697     0.16300
O2047       O  0.92242740  0.57087447  0.48946637    -0.59700
H2048       H  0.89416462  0.59979168  0.46796468     0.14800
H2049       H  0.91607174  0.71342196  0.43879192     0.46700
H2050       H  0.96128318  0.61223523  0.41117313     0.42000
H2051       H  0.90322698  0.05087796  0.49228990     0.45500
H2052       H  0.87132555  0.56363598  0.39825186     0.37000
C2053       C  0.76647962  0.90512336  0.57919575    -0.27300
C2054       C  0.77752402  0.88681326  0.56687534     0.02300
C2055       C  0.75196592  0.85020842  0.56219494     0.30400
C2056       C  0.71753753  0.83170295  0.57080945    -0.19100
C2057       C  0.70696011  0.84840803  0.58470992    -0.28500
C2058       C  0.73126731  0.88690665  0.58736543     0.44400
C2059       C  0.81513102  0.90573342  0.55847778     0.05600
O2060       O  0.75997410  0.83224184  0.54877132    -0.57000
H2061       H  0.69897968  0.80447781  0.56559654     0.18600
O2062       O  0.72109549  0.90703959  0.59819310    -0.63700
H2063       H  0.78516031  0.93376882  0.58253874     0.17000
C2064       C  0.83003002  0.94043837  0.54979299     0.29300
C2065       C  0.86428869  0.95606559  0.54081021    -0.24600
C2066       C  0.88411988  0.93736994  0.53995274    -0.23900
C2067       C  0.86961024  0.90309800  0.54912160     0.40700
C2068       C  0.83569330  0.88781944  0.55833247    -0.26400
O2069       O  0.81084674  0.95882043  0.54941040    -0.58200
H2070       H  0.87472783  0.98243120  0.53393878     0.16300
O2071       O  0.88799140  0.88391660  0.54900629    -0.59700
H2072       H  0.82513226  0.86145184  0.56522716     0.14800
H2073       H  0.71467444  0.92102560  0.58927006     0.46700
H2074       H  0.79435878  0.94907280  0.53837148     0.42000
H2075       H  0.90378124  0.89206966  0.56033954     0.45500
H2076       H  0.75322108  0.83914203  0.53676847     0.37000
C2077       C  0.59645011  0.73317345  0.57125221    -0.27300
C2078       C  0.61445119  0.71319780  0.57351519     0.02300
C2079       C  0.64685047  0.72813501  0.58429700     0.30400
C2080       C  0.66197580  0.76364847  0.59162250    -0.19100
C2081       C  0.64636002  0.78595063  0.58769557    -0.28500
C2082       C  0.61105651  0.76841029  0.57866957     0.44400
C2083       C  0.59938760  0.67745355  0.56387864     0.05600
O2084       O  0.66441291  0.70861419  0.58740456    -0.57000
H2085       H  0.68747322  0.77486837  0.59953075     0.18600
O2086       O  0.58941463  0.78414608  0.57754946    -0.63700
H2087       H  0.57066645  0.72138369  0.56354831     0.17000
C2088       C  0.56224222  0.64973316  0.56619594     0.29300
C2089       C  0.54677486  0.61861437  0.55479173    -0.24600
C2090       C  0.56805380  0.61420920  0.54115654    -0.23900
C2091       C  0.60567585  0.64138836  0.53931918     0.40700
C2092       C  0.62103078  0.67267224  0.55065411    -0.26400
O2093       O  0.54062281  0.65318208  0.57934278    -0.58200
H2094       H  0.51801614  0.59782335  0.55664402     0.16300
O2095       O  0.62737133  0.63836722  0.52605490    -0.59700
H2096       H  0.64951582  0.69400702  0.54855823     0.14800
H2097       H  0.56943268  0.77092467  0.58677805     0.46700
H2098       H  0.54620193  0.64465418  0.59117766     0.42000
H2099       H  0.62472049  0.65063836  0.51480120     0.45500
H2100       H  0.65207622  0.69306020  0.59846776     0.37000
C2101       C  0.60350311  0.93717615  0.56745842    -0.27300
C2102       C  0.58968604  0.89936923  0.56555313     0.02300
C2103       C  0.55750998  0.87797002  0.55497284     0.30400
C2104       C  0.54087742  0.89486337  0.54544298    -0.19100
C2105       C  0.55632913  0.93320673  0.54607499    -0.28500
C2106       C  0.58718712  0.95423834  0.55773861     0.44400
C2107       C  0.61068847  0.88293703  0.57327273     0.05600
O2108       O  0.54235424  0.84054487  0.55382894    -0.57000
H2109       H  0.51683453  0.87803876  0.53685192     0.18600
O2110       O  0.60154793  0.99139419  0.55976563    -0.63700
H2111       H  0.62794835  0.95374176  0.57584889     0.17000
C2112       C  0.62663192  0.86880478  0.56127277     0.29300
C2113       C  0.64533009  0.85209853  0.56857164    -0.24600
C2114       C  0.64823284  0.84815043  0.58803844    -0.23900
C2115       C  0.63450976  0.86541525  0.60004027     0.40700
C2116       C  0.61581831  0.88230618  0.59250311    -0.26400
O2117       O  0.62382522  0.87093181  0.54229336    -0.58200
H2118       H  0.65646827  0.84064415  0.55886345     0.16300
O2119       O  0.64097897  0.86835014  0.61889143    -0.59700
H2120       H  0.60510375  0.89487938  0.60177386     0.14800
H2121       H  0.62380332  0.00313450  0.55176727     0.46700
H2122       H  0.64524132  0.89505096  0.53869684     0.42000
H2123       H  0.61634189  0.85460632  0.62484753     0.45500
H2124       H  0.54808591  0.83588587  0.54109485     0.37000
C2125       C  0.98766109  0.97080445  0.98142472    -0.27300
C2126       C  0.50240559  0.50049979  0.99037668     0.02300
C2127       C  0.51414801  0.53217017  0.97948634     0.30400
C2128       C  0.51471893  0.52997758  0.96003914    -0.19100
C2129       C  0.50289575  0.49615948  0.95077732    -0.28500
C2130       C  0.98837646  0.96706623  0.96202496     0.44400
C2131       C  0.50126142  0.50192194  0.01092487     0.05600
O2132       O  0.52509312  0.56544296  0.98773240    -0.57000
H2133       H  0.52357417  0.55489141  0.95200944     0.18600
O2134       O  0.97992497  0.93327002  0.95535783    -0.63700
H2135       H  0.97866599  0.94678529  0.99022558     0.17000
C2136       C  0.96763261  0.99497073  0.02021498     0.29300
C2137       C  0.96836377  0.99577085  0.03974098    -0.24600
C2138       C  0.49958276  0.50242122  0.05060493    -0.23900
C2139       C  0.53343675  0.51619477  0.04072189     0.40700
C2140       C  0.53387727  0.51549087  0.02121270    -0.26400
O2141       O  0.93450280  0.98120492  0.01102536    -0.58200
H2142       H  0.94244186  0.98696118  0.04663073     0.16300
O2143       O  0.56633781  0.52945424  0.05009204    -0.59700
H2144       H  0.55990386  0.52541362  0.01406912     0.14800
H2145       H  0.00139845  0.93047549  0.95853018     0.46700
H2146       H  0.93166651  0.00281765  0.00853649     0.42000
H2147       H  0.57974523  0.55645462  0.04805048     0.45500
H2148       H  0.50222414  0.56666579  0.98893913     0.37000
C2149       C  0.70230161  0.83639909  0.68805781    -0.27300
C2150       C  0.67041688  0.82598208  0.67731473     0.02300
C2151       C  0.63726190  0.81550506  0.68696124     0.30400
C2152       C  0.63593158  0.81277715  0.70641117    -0.19100
C2153       C  0.66821386  0.82558665  0.71739540    -0.28500
C2154       C  0.70191552  0.83814616  0.70756536     0.44400
C2155       C  0.67162028  0.82531214  0.65631985     0.05600
O2156       O  0.60564081  0.80826637  0.67765974    -0.57000
H2157       H  0.60892284  0.80097971  0.71240588     0.18600
O2158       O  0.73501599  0.85297335  0.71691575    -0.63700
H2159       H  0.72809102  0.84325051  0.68151430     0.17000
C2160       C  0.70295005  0.85036746  0.64595750     0.29300
C2161       C  0.70287360  0.84811734  0.62642583    -0.24600
C2162       C  0.67030999  0.82505514  0.61620478    -0.23900
C2163       C  0.63885146  0.80018661  0.62688975     0.40700
C2164       C  0.64077676  0.79890069  0.64631504    -0.26400
O2165       O  0.73311388  0.87885329  0.65454882    -0.58200
H2166       H  0.72870042  0.86595901  0.61972520     0.16300
O2167       O  0.60565291  0.77660147  0.61860891    -0.59700
H2168       H  0.61706754  0.77732713  0.65349334     0.14800
H2169       H  0.74343291  0.83495425  0.71552844     0.46700
H2170       H  0.75380618  0.87430673  0.65248015     0.42000
H2171       H  0.59028983  0.78813212  0.62020060     0.45500
H2172       H  0.60803499  0.83265099  0.67552213     0.37000
C2173       C  0.98023146  0.91078221  0.89887775    -0.27300
C2174       C  0.94349967  0.88617834  0.90349275     0.02300
C2175       C  0.92559878  0.89747461  0.91595031     0.30400
C2176       C  0.94459906  0.93297706  0.92358889    -0.19100
C2177       C  0.98235900  0.95801886  0.91967395    -0.28500
C2178       C  0.99954380  0.94631191  0.90638836     0.44400
C2179       C  0.92365494  0.85018357  0.89376307     0.05600
O2180       O  0.88924955  0.87435573  0.92042234    -0.57000
H2181       H  0.92975525  0.94108669  0.93288549     0.18600
O2182       O  0.53617930  0.96890630  0.90018167    -0.63700
H2183       H  0.99384821  0.90281426  0.88870200     0.17000
C2184       C  0.91979425  0.84904394  0.87425643     0.29300
C2185       C  0.90350448  0.81537896  0.86488933    -0.24600
C2186       C  0.89094390  0.78200673  0.87459123    -0.23900
C2187       C  0.89416711  0.78314920  0.89427133     0.40700
C2188       C  0.91042441  0.81706793  0.90367090    -0.26400
O2189       O  0.93129646  0.88083287  0.86423578    -0.58200
H2190       H  0.90102255  0.81564036  0.84985467     0.16300
O2191       O  0.88258625  0.75156809  0.90445165    -0.59700
H2192       H  0.91346232  0.81759043  0.91869799     0.14800
H2193       H  0.55226228  0.95864336  0.90329676     0.46700
H2194       H  0.95500217  0.88640278  0.85850254     0.42000
H2195       H  0.85699378  0.74380414  0.90824959     0.45500
H2196       H  0.87499450  0.87906611  0.91083830     0.37000
C2197       C  0.64872039  0.57725938  0.87925315    -0.27300
C2198       C  0.65177106  0.57741031  0.89872351     0.02300
C2199       C  0.68679261  0.59145725  0.90695683     0.30400
C2200       C  0.71825422  0.60543449  0.89569728    -0.19100
C2201       C  0.71540004  0.60551447  0.87609847    -0.28500
C2202       C  0.67994172  0.59087254  0.86795154     0.44400
C2203       C  0.61770746  0.56182691  0.90998498     0.05600
O2204       O  0.69057243  0.59185356  0.92597297    -0.57000
H2205       H  0.74496177  0.61629784  0.90238436     0.18600
O2206       O  0.67529857  0.59012350  0.84897721    -0.63700
H2207       H  0.62179000  0.56606378  0.87274186     0.17000
C2208       C  0.59423006  0.57634345  0.90856971     0.29300
C2209       C  0.55868494  0.55699661  0.91601598    -0.24600
C2210       C  0.54475504  0.52158147  0.92396903    -0.23900
C2211       C  0.57093112  0.51060557  0.92814117     0.40700
C2212       C  0.60664494  0.53008739  0.92068647    -0.26400
O2213       O  0.60580823  0.60940713  0.89978599    -0.58200
H2214       H  0.54195393  0.56970842  0.91489851     0.16300
O2215       O  0.56026930  0.98261198  0.94128752    -0.59700
H2216       H  0.62495674  0.51916936  0.92238240     0.14800
H2217       H  0.66962983  0.56523121  0.84509207     0.46700
H2218       H  0.59352568  0.60308927  0.88739636     0.42000
H2219       H  0.56980933  0.99281641  0.95385739     0.45500
H2220       H  0.69319432  0.61552138  0.93002183     0.37000
C2221       C  0.96256068  0.53780327  0.89264811    -0.27300
C2222       C  0.93986146  0.54535114  0.90365831     0.02300
C2223       C  0.93537730  0.53529572  0.92257729     0.30400
C2224       C  0.95483763  0.51943431  0.93037927    -0.19100
C2225       C  0.97981014  0.51382018  0.91968069    -0.28500
C2226       C  0.98129877  0.52124663  0.90021788     0.44400
C2227       C  0.92002414  0.56225522  0.89473344     0.05600
O2228       O  0.91040287  0.53888557  0.93326764    -0.57000
H2229       H  0.94925185  0.51075630  0.94477377     0.18600
O2230       O  0.50057353  0.51190210  0.88926483    -0.63700
H2231       H  0.96576624  0.54471103  0.87793594     0.17000
C2232       C  0.92333741  0.59521203  0.90141963     0.29300
C2233       C  0.90671918  0.61199840  0.89164448    -0.24600
C2234       C  0.88768330  0.59692322  0.87487278    -0.23900
C2235       C  0.88377603  0.56357570  0.86843477     0.40700
C2236       C  0.89978150  0.54655968  0.87834740    -0.26400
O2237       O  0.94403717  0.61208272  0.91700065    -0.58200
H2238       H  0.91010173  0.63768190  0.89674787     0.16300
O2239       O  0.86456835  0.54745318  0.85236248    -0.59700
H2240       H  0.89682973  0.52116813  0.87304809     0.14800
H2241       H  0.48277775  0.49032436  0.88180772     0.46700
H2242       H  0.96973821  0.62727994  0.91247436     0.42000
H2243       H  0.83865822  0.53114834  0.85635192     0.45500
H2244       H  0.92531879  0.55793606  0.94267342     0.37000
C2245       C  0.78143181  0.76589104  0.76927970    -0.27300
C2246       C  0.74299505  0.74944308  0.76791860     0.02300
C2247       C  0.72042663  0.71523856  0.77667333     0.30400
C2248       C  0.73647059  0.69882919  0.78721141    -0.19100
C2249       C  0.77500663  0.71645501  0.78953306    -0.28500
C2250       C  0.79748969  0.75012973  0.78017240     0.44400
C2251       C  0.72696950  0.77001027  0.75896433     0.05600
O2252       O  0.68267623  0.69833564  0.77566120    -0.57000
H2253       H  0.71856491  0.67294653  0.79417538     0.18600
O2254       O  0.83525860  0.76807190  0.78154589    -0.63700
H2255       H  0.79917583  0.79185847  0.76233965     0.17000
C2256       C  0.73847240  0.80614651  0.76456688     0.29300
C2257       C  0.72162802  0.82462154  0.75714840    -0.24600
C2258       C  0.69074306  0.80685743  0.74508850    -0.23900
C2259       C  0.68155943  0.77151234  0.73823059     0.40700
C2260       C  0.69954336  0.75352561  0.74523774    -0.26400
O2261       O  0.76553625  0.82346484  0.77783331    -0.58200
H2262       H  0.73296589  0.85279029  0.76143159     0.16300
O2263       O  0.65394884  0.75373758  0.72525760    -0.59700
H2264       H  0.69128408  0.72616316  0.74029879     0.14800
H2265       H  0.84180392  0.78712316  0.79123946     0.46700
H2266       H  0.75241886  0.81653126  0.78993506     0.42000
H2267       H  0.63274247  0.73394578  0.73215765     0.45500
H2268       H  0.67553040  0.70889114  0.78603909     0.37000
C2269       C  0.01021720  0.77529818  0.78297847    -0.27300
C2270       C  0.51893903  0.75060972  0.77258880     0.02300
C2271       C  0.99317201  0.71565991  0.77014426     0.30400
C2272       C  0.96071031  0.69961816  0.78069575    -0.19100
C2273       C  0.95263728  0.72111169  0.79251250    -0.28500
C2274       C  0.97775905  0.75937967  0.79347541     0.44400
C2275       C  0.55502039  0.76756215  0.76303532     0.05600
O2276       O  0.49999573  0.69086303  0.75954758    -0.57000
H2277       H  0.94177542  0.67026306  0.77959344     0.18600
O2278       O  0.97153236  0.78143681  0.80506706    -0.63700
H2279       H  0.53132608  0.80116471  0.78619738     0.17000
C2280       C  0.56753422  0.79892524  0.75176148     0.29300
C2281       C  0.60329038  0.81628826  0.74446121    -0.24600
C2282       C  0.62752239  0.80255675  0.74755646    -0.23900
C2283       C  0.61488188  0.77216695  0.76028712     0.40700
C2284       C  0.57883378  0.75448690  0.76706867    -0.26400
O2285       O  0.54522395  0.81323877  0.74802055    -0.58200
H2286       H  0.61230628  0.84093581  0.73616828     0.16300
O2287       O  0.63756347  0.76079320  0.76774177    -0.59700
H2288       H  0.57020288  0.73163109  0.77666899     0.14800
H2289       H  0.98251002  0.78066918  0.81722694     0.46700
H2290       H  0.52996795  0.79911384  0.73716591     0.42000
H2291       H  0.64742583  0.77495339  0.77944964     0.45500
H2292       H  0.49084104  0.69324977  0.74713429     0.37000
C2293       C  0.71726470  0.49148819  0.77676908    -0.27300
C2294       C  0.73147595  0.97023191  0.77542229     0.02300
C2295       C  0.76958051  0.99498906  0.77356273     0.30400
C2296       C  0.78793773  0.51961318  0.79192017    -0.19100
C2297       C  0.76959772  0.53957644  0.79404151    -0.28500
C2298       C  0.73395121  0.52523329  0.78618236     0.44400
C2299       C  0.71370509  0.93386494  0.76607008     0.05600
O2300       O  0.79087095  0.98618213  0.76280096    -0.57000
H2301       H  0.81530997  0.52988030  0.79771632     0.18600
O2302       O  0.71497736  0.54368185  0.78770309    -0.63700
H2303       H  0.68979419  0.48060397  0.77097009     0.17000
C2304       C  0.69763858  0.90120099  0.77647911     0.29300
C2305       C  0.68309642  0.86730582  0.76745192    -0.24600
C2306       C  0.68394354  0.86445791  0.74776965    -0.23900
C2307       C  0.69763252  0.89786228  0.73739104     0.40700
C2308       C  0.71315728  0.93182169  0.74660104    -0.26400
O2309       O  0.69761155  0.90219304  0.79559177    -0.58200
H2310       H  0.67188598  0.84280342  0.77603461     0.16300
O2311       O  0.69567559  0.89846564  0.71834666    -0.59700
H2312       H  0.72437370  0.95687274  0.73841612     0.14800
H2313       H  0.72221857  0.56000220  0.77661608     0.46700
H2314       H  0.67248775  0.89673283  0.79899955     0.42000
H2315       H  0.67179391  0.89699102  0.71554854     0.45500
H2316       H  0.79849587  0.97244018  0.77122118     0.37000
loop_ 
_geom_bond_atom_site_label_1 
_geom_bond_atom_site_label_2 
_geom_bond_distance 
_geom_bond_site_symmetry_2 
_ccdc_geom_bond_type 
O1           C17   1.276       .  A
O1           Zn7   2.027       .  S
C2           O18   1.274       .  A
C2           O15   1.275       .  A
C2          C560   1.490       .  S
O3           C16   1.277       .  A
O3          Cd10   2.086       .  S
O4           C22   1.275       .  A
O4          Cd13   2.060       .  S
O5           C19   1.273       .  A
O5           Cd9   2.062       .  S
O6           C17   1.273       .  A
O6           Cd9   2.057       .  S
Zn7          O18   2.028       .  S
Zn7          O20   2.008       .  S
Zn7          O12   1.942       .  S
O8           C19   1.277       .  A
O8          Cd13   2.080       .  S
Cd9          O11   2.060       .  S
Cd9          O12   1.988       .  S
Cd10         O14   2.098       .  S
Cd10         O23   2.090       .  S
Cd10         O12   2.016       .  S
O11          C21   1.275       .  A
O12         Cd13   1.995       .  S
Cd13         O15   2.077       .  S
O14          C21   1.278       .  A
C16          O20   1.274       .  A
C16         C464   1.491       .  S
C17         C512   1.484       .  S
C19         C536   1.482       .  S
C21         C449   1.493       .  S
C22          O23   1.279       .  A
C22         C497   1.482       .  S
C24         C416   1.570       .  S
C24         C521   1.562       .  S
C24         C545   1.575       .  S
C24         C569   1.568       .  S
C25         C392   1.567   1_455  S
C25         C473   1.564   1_565  S
C25        C2177   1.569   1_455  S
C25        C1646   1.568   1_465  S
O26          C42   1.275       .  A
O26        Zn611   2.030       .  S
C27          O43   1.275       .  A
C27          O40   1.273       .  A
C27         C353   1.482       .  S
O28          C41   1.278       .  A
O28        Cd614   2.092   1_545  S
O29          C47   1.273       .  A
O29         Cd38   2.056       .  S
O30          C44   1.276       .  A
O30       Cd1192   2.079   1_455  S
O31          C42   1.276       .  A
O31         Cd34   2.080       .  S
Zn32         O45   1.997       .  S
Zn32        O605   2.016   1_545  S
Zn32       O1201   2.015       .  S
Zn32        O616   1.937   1_545  S
O33          C44   1.274       .  A
O33        Cd617   2.066       .  S
Cd34         O36   2.073       .  S
Cd34       O1188   2.082       .  S
Cd34         O37   2.003       .  S
Cd35         O39   2.088       .  S
Cd35        O607   2.095       .  S
Cd35       O1785   2.108       .  S
Cd35         O37   2.020       .  S
O36          C46   1.278       .  A
O37        Zn611   1.944       .  S
O37       Cd1775   1.990       .  S
Cd38         O40   2.061       .  S
Cd38        O612   2.047   1_545  S
Cd38       O1774   1.988   1_545  S
O39          C46   1.278       .  A
C41          O45   1.272       .  A
C41         C305   1.490       .  S
C42         C329   1.489       .  S
O43       Zn1190   2.026   1_455  S
C44         C368   1.484       .  S
C46         C272   1.493       .  S
C47          O48   1.279       .  A
C47         C248   1.489       .  S
O48       Cd1772   2.107   1_545  S
C49         C233   1.563       .  S
C49         C257   1.570       .  S
C49         C281   1.565       .  S
C49         C296   1.565       .  S
C50         C320   1.581       .  S
C50         C344   1.574       .  S
C50         C377   1.559       .  S
C50         C425   1.574       .  S
O51          C67   1.276       .  A
O51         Zn57   2.039       .  S
C52          O68   1.278       .  A
C52          O65   1.274       .  A
C52         C128   1.492       .  S
O53          C66   1.277       .  A
O53         Cd60   2.080       .  S
O54          C72   1.275       .  A
O54         Cd63   2.064       .  S
O55          C69   1.275       .  A
O55         Cd59   2.067       .  S
O56          C67   1.274       .  A
O56         Cd59   2.065       .  S
Zn57         O68   2.043       .  S
Zn57         O70   2.017       .  S
Zn57         O62   1.951       .  S
O58          C69   1.273       .  A
O58         Cd63   2.058       .  S
Cd59         O61   2.065       .  S
Cd59         O62   1.995       .  S
Cd60         O64   2.099       .  S
Cd60         O73   2.103       .  S
Cd60         O62   2.017       .  S
O61          C71   1.275       .  A
O62         Cd63   1.993       .  S
Cd63         O65   2.067       .  S
O64          C71   1.278       .  A
C66          O70   1.277       .  A
C66         C176   1.490       .  S
C67          C80   1.488       .  S
C69         C113   1.477       .  S
C71         C161   1.496       .  S
C72          O73   1.279       .  A
C72         C209   1.487       .  S
C74         C104   1.558       .  S
C74         C401   1.568       .  S
C74        C1826   1.570   1_445  S
C74         C716   1.567   1_545  S
C75         C152   1.571       .  S
C75         C185   1.564       .  S
C75         C200   1.571       .  S
C75         C224   1.564       .  S
C76          C77   1.403       .  A
C76          C81   1.403       .  A
C76          H86   1.084       .  S
C77          C82   1.483       .  S
C77          C78   1.407       .  A
C78          C79   1.402       .  A
C78          O83   1.372       .  S
C79          C80   1.408       .  A
C79          H84   1.084       .  S
C80          C81   1.412       .  A
C81          O85   1.371       .  S
C82          C87   1.402       .  A
C82          C91   1.395       .  A
O83          H99   0.992       .  S
O85          H96   0.992       .  S
C87          C88   1.402       .  A
C87          O92   1.372       .  S
C88          C89   1.418       .  A
C88          H93   1.083       .  S
C89        C1811   1.569       .  S
C89          C90   1.432       .  A
C90          C91   1.403       .  A
C90         O673   1.372       .  S
C91          H95   1.084       .  S
O92          H97   0.992       .  S
O94         C669   1.373       .  S
O94          H98   0.992       .  S
C100        C101   1.401       .  A
C100        C105   1.403       .  A
C100        H110   1.084       .  S
C101        C106   1.479       .  S
C101        C102   1.402       .  A
C102        C103   1.395       .  A
C102        O107   1.373       .  S
C103        C104   1.416       .  A
C103        H108   1.079       .  S
C104        C105   1.422       .  A
C105       O1267   1.374   1_455  S
C106        C111   1.407       .  A
C106        C115   1.403       .  A
O107        H123   0.992       .  S
O109       C1263   1.373       .  S
O109        H120   0.991       .  S
C111        C112   1.401       .  A
C111        O116   1.373       .  S
C112        C113   1.405       .  A
C112        H117   1.084       .  S
C113        C114   1.410       .  A
C114        C115   1.397       .  A
C114        O118   1.372       .  S
C115        H119   1.084       .  S
O116        H121   0.992       .  S
O118        H122   0.992       .  S
C124        C125   1.399       .  A
C124        C129   1.402       .  A
C124        H134   1.084       .  S
C125        C130   1.480       .  S
C125        C126   1.407       .  A
C126        C127   1.400       .  A
C126        O131   1.372       .  S
C127        C128   1.407       .  A
C127        H132   1.083       .  S
C128        C129   1.418       .  A
C129        O133   1.371       .  S
C130        C135   1.402       .  A
C130        C139   1.395       .  A
O131        H147   0.992       .  S
O133        H144   0.992       .  S
C135        C136   1.403       .  A
C135        O140   1.371       .  S
C136        C137   1.420       .  A
C136        H141   1.080       .  S
C137        C653   1.567   1_455  S
C137        C138   1.425       .  A
C138        C139   1.399       .  A
C138        O142   1.373       .  S
C139        H143   1.084       .  S
O140        H145   0.992       .  S
O142       H1304   0.992       .  S
H146       O1300   0.992       .  S
C148        C149   1.401       .  A
C148        C153   1.407       .  A
C148        H158   1.083       .  S
C149        C154   1.485       .  S
C149        C150   1.402       .  A
C150        C151   1.399       .  A
C150        O155   1.373       .  S
C151        C152   1.417       .  A
C151        H156   1.080       .  S
C152        C153   1.423       .  A
C153        O157   1.371       .  S
C154        C159   1.406       .  A
C154        C163   1.403       .  A
O155        H171   0.992       .  S
O157        H168   0.992       .  S
C159        C160   1.398       .  A
C159        O164   1.372       .  S
C160        C161   1.409       .  A
C160        H165   1.083       .  S
C161        C162   1.416       .  A
C162        C163   1.408       .  A
C162        O166   1.371       .  S
C163        H167   1.083       .  S
O164        H169   0.991       .  S
O166        H170   0.992       .  S
C172        C177   1.402       .  A
C172        C752   1.402       .  A
C172        H182   1.084       .  S
C173        C178   1.482       .  S
C173        C174   1.406       .  A
C173        C751   1.402   1_545  A
C174        C754   1.399   1_545  A
C174        O179   1.373       .  S
C175        C176   1.408       .  A
C175        C753   1.400       .  A
C175        H180   1.083       .  S
C176        C177   1.415       .  A
C177        O181   1.371       .  S
C178        C183   1.403       .  A
C178        C187   1.398       .  A
O179        H195   0.992       .  S
O181        H192   0.992       .  S
C183        C184   1.397       .  A
C183        O188   1.372       .  S
C184        C185   1.416       .  A
C184        H189   1.076       .  S
C185        C186   1.427       .  A
C186        C187   1.404       .  A
C186        O190   1.373       .  S
C187        H191   1.084       .  S
O188        H193   0.992       .  S
O190        H194   0.991       .  S
C196        C197   1.401       .  A
C196        C201   1.400       .  A
C196        H206   1.083       .  S
C197        C202   1.494       .  S
C197        C198   1.407       .  A
C198        C199   1.404       .  A
C198        O203   1.372       .  S
C199        C200   1.418       .  A
C199        H204   1.079       .  S
C200        C201   1.424       .  A
C201        O205   1.374       .  S
C202        C207   1.411       .  A
C202       C1369   1.408       .  A
O203        H219   0.992       .  S
O205        H216   0.992       .  S
C207       C1366   1.398       .  A
C207        O212   1.372       .  S
C208        C209   1.405       .  A
C208       C1365   1.398   1_455  A
C208        H213   1.084       .  S
C209        C210   1.411       .  A
C210        C211   1.408       .  A
C210        O214   1.371       .  S
C211       C1360   1.409   1_455  A
C211        H215   1.083       .  S
O212        H217   0.992       .  S
O214        H218   0.991       .  S
C220        C221   1.396       .  A
C220        C225   1.405       .  A
C220        H230   1.084       .  S
C221        C226   1.480       .  S
C221        C222   1.401       .  A
C222        C223   1.401       .  A
C222        O227   1.371       .  S
C223        C224   1.416       .  A
C223        H228   1.083       .  S
C224        C225   1.430       .  A
C225        O229   1.373       .  S
C226        C231   1.400       .  A
C226        C235   1.398       .  A
O227        H243   0.992       .  S
O229        H240   0.992       .  S
C231        C232   1.399       .  A
C231        O236   1.371       .  S
C232        C233   1.418       .  A
C232        H237   1.083       .  S
C233        C234   1.428       .  A
C234        C235   1.406       .  A
C234        O238   1.371       .  S
C235        H239   1.084       .  S
O236        H241   0.992       .  S
O238        H242   0.992       .  S
C244        C245   1.403       .  A
C244        C249   1.399       .  A
C244        H254   1.083       .  S
C245        C250   1.494       .  S
C245        C246   1.413       .  A
C246        C247   1.406       .  A
C246        O251   1.371       .  S
C247        C248   1.405       .  A
C247        H252   1.083       .  S
C248        C249   1.414       .  A
C249        O253   1.372       .  S
C250        C255   1.407       .  A
C250        C259   1.402       .  A
O251        H267   0.992       .  S
O253        H264   0.992       .  S
C255        C256   1.398       .  A
C255        O260   1.372       .  S
C256        C257   1.415       .  A
C256        H261   1.082       .  S
C257        C258   1.427       .  A
C258        C259   1.406       .  A
C258        O262   1.371       .  S
C259        H263   1.083       .  S
O260        H265   0.992       .  S
O262        H266   0.992       .  S
C268        C269   1.401       .  A
C268        C273   1.406       .  A
C268        H278   1.083       .  S
C269        C274   1.481       .  S
C269        C270   1.405       .  A
C270        C271   1.399       .  A
C270        O275   1.373       .  S
C271        C272   1.408       .  A
C271        H276   1.083       .  S
C272        C273   1.417       .  A
C273        O277   1.371       .  S
C274        C279   1.402       .  A
C274        C283   1.399       .  A
O275        H291   0.991       .  S
O277        H288   0.992       .  S
C279        C280   1.399       .  A
C279        O284   1.373       .  S
C280        C281   1.416       .  A
C280        H285   1.080       .  S
C281        C282   1.424       .  A
C282        C283   1.406       .  A
C282        O286   1.372       .  S
C283        H287   1.084       .  S
O284        H289   0.991       .  S
O286        H290   0.991       .  S
C292        C293   1.398       .  A
C292        C297   1.402       .  A
C292        H302   1.084       .  S
C293        C298   1.485       .  S
C293        C294   1.402       .  A
C294        C295   1.402       .  A
C294        O299   1.372       .  S
C295        C296   1.417       .  A
C295        H300   1.081       .  S
C296        C297   1.430       .  A
C297        O301   1.373       .  S
C298        C303   1.409       .  A
C298        C307   1.400       .  A
O299        H315   0.992       .  S
O301        H312   0.992       .  S
C303        C304   1.405       .  A
C303        O308   1.371       .  S
C304        C305   1.408       .  A
C304        H309   1.083       .  S
C305        C306   1.416       .  A
C306        C307   1.397       .  A
C306        O310   1.372       .  S
C307        H311   1.084       .  S
O308        H313   0.992       .  S
O310        H893   0.992       .  S
H314        O889   0.992       .  S
C316        C317   1.401       .  A
C316        C321   1.406       .  A
C316        H326   1.083       .  S
C317        C322   1.492       .  S
C317        C318   1.404       .  A
C318        C319   1.398       .  A
C318        O323   1.372       .  S
C319        C320   1.420       .  A
C319        H324   1.076       .  S
C320        C321   1.428       .  A
C321        O325   1.373       .  S
C322        C327   1.410       .  A
C322        C331   1.405       .  A
O323        H339   0.991       .  S
O325        H336   0.992       .  S
C327        C328   1.403       .  A
C327        O332   1.372       .  S
C328        C329   1.407       .  A
C328        H333   1.083       .  S
C329        C330   1.412       .  A
C330        C331   1.402       .  A
C330        O334   1.371       .  S
C331        H335   1.084       .  S
O332        H337   0.992       .  S
O334        H338   0.992       .  S
C340        C341   1.394       .  A
C340        C345   1.396       .  A
C340        H350   1.084       .  S
C341        C346   1.481       .  S
C341        C342   1.404       .  A
C342        C343   1.403       .  A
C342        O347   1.371       .  S
C343        C344   1.418       .  A
C343        H348   1.084       .  S
C344        C345   1.433       .  A
C345        O349   1.372       .  S
C346        C351   1.409       .  A
C346        C355   1.402       .  A
O347        H363   0.992       .  S
O349        H360   0.992       .  S
C351        C352   1.400       .  A
C351        O356   1.372       .  S
C352        C353   1.405       .  A
C352        H357   1.084       .  S
C353        C354   1.412       .  A
C354        C355   1.400       .  A
C354        O358   1.372       .  S
C355        H359   1.084       .  S
O356        H361   0.992       .  S
O358        H362   0.992       .  S
C364        C365   1.401       .  A
C364        C369   1.401       .  A
C364        H374   1.084       .  S
C365        C370   1.481       .  S
C365        C366   1.408       .  A
C366        C367   1.402       .  A
C366        O371   1.373       .  S
C367        C368   1.406       .  A
C367        H372   1.084       .  S
C368        C369   1.413       .  A
C369        O373   1.372       .  S
C370        C375   1.401       .  A
C370        C379   1.400       .  A
O371        H387   0.992       .  S
O373        H384   0.992       .  S
C375        C376   1.394       .  A
C375        O380   1.372       .  S
C376        C377   1.419       .  A
C376        H381   1.083       .  S
C377        C378   1.426       .  A
C378        C379   1.407       .  A
C378        O382   1.371       .  S
C379        H383   1.084       .  S
O380        H385   0.992       .  S
O382        H386   0.993       .  S
C388        C393   1.403       .  A
C388       C2126   1.395       .  A
C388        H398   1.084       .  S
C389        C394   1.480   1_556  S
C389        C390   1.400       .  A
C389       C2125   1.397   1_445  A
C390        C391   1.399       .  A
C390        O395   1.372       .  S
C391        C392   1.419   1_445  A
C391        H396   1.083       .  S
C392       C2130   1.428       .  A
C393       C2129   1.429       .  A
C393        O397   1.372       .  S
C394        C403   1.397       .  A
C394       C2136   1.402   1_445  A
O395        H411   0.992       .  S
O397        H408   0.992       .  S
C399        C400   1.401       .  A
C399       C2131   1.402       .  A
C399        O404   1.372       .  S
C400       C2138   1.417       .  A
C400        H405   1.079       .  S
C401        C402   1.425       .  A
C401       C2137   1.419   1_445  A
C402        C403   1.402       .  A
C402        O406   1.372       .  S
C403        H407   1.084       .  S
O404        H409   0.992       .  S
O406        H410   0.992       .  S
C412        C413   1.406       .  A
C412        C417   1.403       .  A
C412        H422   1.079       .  S
C413        C418   1.513       .  S
C413        C414   1.415       .  A
C414        C415   1.400       .  A
C414        O419   1.371       .  S
C415        C416   1.413       .  A
C415        H420   1.074       .  S
C416        C417   1.425       .  A
C417        O421   1.373       .  S
C418        C423   1.414       .  A
C418        C427   1.405       .  A
O419        H435   0.992       .  S
O421        H432   0.992       .  S
C423        C424   1.405       .  A
C423        O428   1.373       .  S
C424        C425   1.416       .  A
C424        H429   1.073       .  S
C425        C426   1.426       .  A
C426        C427   1.400       .  A
C426        O430   1.370       .  S
C427        H431   1.081       .  S
O428        H433   0.992       .  S
O430        H434   0.992       .  S
C436        C437   1.397       .  A
C436        C441   1.402       .  A
C436        H446   1.084       .  S
C437        C442   1.482       .  S
C437        C438   1.400       .  A
C438        C439   1.400       .  A
C438        O443   1.371       .  S
C439        C440   1.419       .  A
C439        H444   1.083       .  S
C440       C1762   1.564       .  S
C440        C441   1.429       .  A
C441       O1603   1.371       .  S
C442        C447   1.404       .  A
C442        C451   1.403       .  A
O443        H459   0.992       .  S
O445       C1599   1.371   1_455  S
O445        H456   0.993       .  S
C447        C448   1.398       .  A
C447        O452   1.372       .  S
C448        C449   1.409       .  A
C448        H453   1.083       .  S
C449        C450   1.415       .  A
C450        C451   1.406       .  A
C450        O454   1.371       .  S
C451        H455   1.084       .  S
O452        H457   0.992       .  S
O454        H458   0.992       .  S
C460        C461   1.402       .  A
C460        C465   1.396       .  A
C460        H470   1.084       .  S
C461        C466   1.485       .  S
C461        C462   1.408       .  A
C462        C463   1.405       .  A
C462        O467   1.371       .  S
C463        C464   1.410       .  A
C463        H468   1.083       .  S
C464        C465   1.414       .  A
C465        O469   1.372       .  S
C466        C471   1.404       .  A
C466        C475   1.402       .  A
O467        H483   0.992       .  S
O469        H480   0.992       .  S
C471        C472   1.397       .  A
C471        O476   1.373       .  S
C472        C473   1.416       .  A
C472        H477   1.080       .  S
C473        C474   1.422       .  A
C474        C475   1.405       .  A
C474       O1057   1.370   1_545  S
C475        H479   1.083       .  S
O476        H481   0.992       .  S
O478       C1053   1.370       .  S
O478        H482   0.992       .  S
C484        C485   1.401       .  A
C484        C489   1.398       .  A
C484        H494   1.084       .  S
C485        C490   1.491       .  S
C485        C486   1.407       .  A
C486        C487   1.405       .  A
C486        O491   1.373       .  S
C487        C488   1.417       .  A
C487        H492   1.080       .  S
C488       C1183   1.568   1_545  S
C488        C489   1.423       .  A
C489       O1651   1.371       .  S
C490        C495   1.413       .  A
C490        C499   1.404       .  A
O491        H507   0.992       .  S
O493       C1647   1.371       .  S
O493        H504   0.992   1_545  S
C495        C496   1.403       .  A
C495        O500   1.371       .  S
C496        C497   1.404       .  A
C496        H501   1.084       .  S
C497        C498   1.411       .  A
C498        C499   1.397       .  A
C498        O502   1.372       .  S
C499        H503   1.084       .  S
O500        H505   0.992       .  S
O502        H506   0.992       .  S
C508        C509   1.402       .  A
C508        C513   1.398       .  A
C508        H518   1.084       .  S
C509        C514   1.483       .  S
C509        C510   1.409       .  A
C510        C511   1.400       .  A
C510        O515   1.372       .  S
C511        C512   1.406       .  A
C511        H516   1.083       .  S
C512        C513   1.413       .  A
C513        O517   1.372       .  S
C514        C519   1.405       .  A
C514        C523   1.400       .  A
O515        H531   0.992       .  S
O517        H528   0.992       .  S
C519        C520   1.394       .  A
C519        O524   1.372       .  S
C520        C521   1.416       .  A
C520        H525   1.077       .  S
C521        C522   1.425       .  A
C522        C523   1.403       .  A
C522        O526   1.373       .  S
C523        H527   1.083       .  S
O524        H529   0.992       .  S
O526        H530   0.991       .  S
C532        C537   1.401       .  A
C532       C1691   1.401       .  A
C532       H1700   1.084       .  S
C533        C538   1.482       .  S
C533       C1690   1.402       .  A
C533       C1692   1.408   1_455  A
C534        C535   1.399       .  A
C534       C1691   1.407       .  A
C534       O1697   1.372       .  S
C535        C536   1.405       .  A
C535        H540   1.083       .  S
C536        C537   1.414       .  A
C537        O541   1.372       .  S
C538        C543   1.402       .  A
C538        C547   1.394       .  A
O539       C1692   1.372       .  S
O539        H555   0.992       .  S
O541        H552   0.992       .  S
H542       C1690   1.084       .  S
C543        C544   1.401       .  A
C543        O548   1.371       .  S
C544        C545   1.419       .  A
C544        H549   1.083       .  S
C545        C546   1.434       .  A
C546        C547   1.397       .  A
C546        O550   1.370       .  S
C547        H551   1.084       .  S
O548        H553   0.991       .  S
O550        H554   0.992       .  S
C556        C561   1.403   1_565  A
C556       C1136   1.404       .  A
C556        H566   1.083       .  S
C557        C562   1.478       .  S
C557        C558   1.404       .  A
C557       C1135   1.402       .  A
C558       C1138   1.397       .  A
C558        O563   1.372       .  S
C559        C560   1.407       .  A
C559       C1137   1.401   1_545  A
C559        H564   1.083       .  S
C560        C561   1.414       .  A
C561        O565   1.372       .  S
C562        C567   1.400       .  A
C562        C571   1.397       .  A
O563        H579   0.992       .  S
O565        H576   0.992       .  S
C567        C568   1.395       .  A
C567        O572   1.372       .  S
C568        C569   1.419       .  A
C568        H573   1.082       .  S
C569        C570   1.430       .  A
C570        C571   1.403       .  A
C570        O574   1.369       .  S
C571        H575   1.084       .  S
O572        H577   0.992       .  S
O574        H578   0.992       .  S
O580        C596   1.276       .  A
O580       Zn586   2.032       .  S
C581        O597   1.275       .  A
C581        O594   1.274       .  A
C581       C1139   1.485       .  S
O582        C595   1.276       .  A
O582       Cd589   2.073       .  S
O583        C601   1.275       .  A
O583       Cd592   2.063       .  S
O584        C598   1.273       .  A
O584       Cd588   2.059       .  S
O585        C596   1.273       .  A
O585       Cd588   2.060       .  S
Zn586       O597   2.034       .  S
Zn586       O599   2.018       .  S
Zn586       O591   1.953       .  S
O587        C598   1.276       .  A
O587       Cd592   2.078       .  S
Cd588       O590   2.062       .  S
Cd588       O591   1.987       .  S
Cd589       O593   2.095       .  S
Cd589       O602   2.088       .  S
Cd589       O591   2.013       .  S
O590        C600   1.275       .  A
O591       Cd592   1.996       .  S
Cd592       O594   2.058       .  S
O593        C600   1.277       .  A
C595        O599   1.276       .  A
C595       C1043   1.489       .  S
C596       C1091   1.489       .  S
C598       C1115   1.481       .  S
C600       C1028   1.494       .  S
C601        O602   1.277       .  A
C601       C1076   1.481       .  S
C603        C995   1.574       .  S
C603       C1100   1.565       .  S
C603       C1124   1.578       .  S
C603       C1148   1.572       .  S
C604        C971   1.566       .  S
C604       C1598   1.566   1_455  S
C604       C1052   1.561       .  S
C604       C2225   1.565   1_455  S
O605        C621   1.273       .  A
C606        O622   1.276       .  A
C606        O619   1.274       .  A
C606        C932   1.479       .  S
O607        C620   1.279       .  A
O608        C626   1.275       .  A
O608       Cd617   2.066       .  S
O609        C623   1.276       .  A
O609      Cd1771   2.071   1_455  S
O610        C621   1.275       .  A
O610       Cd613   2.073       .  S
Zn611      O1780   2.031       .  S
Zn611       O624   2.012       .  S
O612        C623   1.271       .  A
Cd613      O1767   2.066       .  S
Cd613       O615   2.069       .  S
Cd613       O616   1.999       .  S
Cd614       O618   2.082       .  S
Cd614      O1206   2.095   1_565  S
Cd614       O616   2.012       .  S
O615        C625   1.276       .  A
O616      Cd1196   1.994   1_565  S
Cd617       O619   2.067       .  S
Cd617      O1195   1.996       .  S
O618        C625   1.277       .  A
C620        O624   1.275       .  A
C620        C884   1.491       .  S
C621        C908   1.482       .  S
O622      Zn1769   2.027   1_455  S
C623        C947   1.483       .  S
C625        C851   1.490       .  S
C626        O627   1.277       .  A
C626        C827   1.485       .  S
O627      Cd1193   2.089       .  S
C628        C812   1.564       .  S
C628        C836   1.568       .  S
C628        C860   1.561       .  S
C628        C875   1.564       .  S
C629        C899   1.578       .  S
C629        C923   1.572       .  S
C629        C956   1.555       .  S
C629       C1004   1.571       .  S
O630        C646   1.276       .  A
O630       Zn636   2.033       .  S
C631        O647   1.277       .  A
C631        O644   1.274       .  A
C631        C707   1.492       .  S
O632        C645   1.275       .  A
O632       Cd639   2.069       .  S
O633        C651   1.274       .  A
O633       Cd642   2.063       .  S
O634        C648   1.276       .  A
O634       Cd638   2.075       .  S
O635        C646   1.274       .  A
O635       Cd638   2.065       .  S
Zn636       O647   2.042       .  S
Zn636       O649   2.028       .  S
Zn636       O641   1.952       .  S
O637        C648   1.273       .  A
O637       Cd642   2.064       .  S
Cd638       O640   2.074       .  S
Cd638       O641   1.998       .  S
Cd639       O643   2.080       .  S
Cd639       O652   2.082       .  S
Cd639       O641   2.010       .  S
O640        C650   1.277       .  A
O641       Cd642   1.993       .  S
Cd642       O644   2.064       .  S
O643        C650   1.276       .  A
C645        O649   1.277       .  A
C645        C755   1.490       .  S
C646        C659   1.488       .  S
C648        C692   1.481       .  S
C650        C740   1.492       .  S
C651        O652   1.276       .  A
C651        C788   1.480       .  S
C653       C1247   1.568       .  S
C653        C683   1.559   1_655  S
C653        C980   1.566       .  S
C654        C731   1.567       .  S
C654        C764   1.563       .  S
C654        C779   1.568       .  S
C654        C803   1.564       .  S
C655        C656   1.404       .  A
C655        C660   1.401       .  A
C655        H665   1.084       .  S
C656        C661   1.485       .  S
C656        C657   1.407       .  A
C657        C658   1.402       .  A
C657        O662   1.373       .  S
C658        C659   1.408       .  A
C658        H663   1.083       .  S
C659        C660   1.412       .  A
C660        O664   1.372       .  S
C661        C666   1.403       .  A
C661        C670   1.397       .  A
O662        H678   0.992       .  S
O664        H675   0.992       .  S
C666        C667   1.402       .  A
C666        O671   1.373       .  S
C667        C668   1.417       .  A
C667        H672   1.083       .  S
C668       C1232   1.566   1_565  S
C668        C669   1.430   1_565  A
C669        C670   1.402   1_545  A
C670        H674   1.084       .  S
O671        H676   0.992       .  S
O673        H677   0.992       .  S
C679        C680   1.401       .  A
C679        C684   1.403       .  A
C679        H689   1.084       .  S
C680        C685   1.483       .  S
C680        C681   1.404       .  A
C681        C682   1.397       .  A
C681        O686   1.373       .  S
C682        C683   1.414       .  A
C682        H687   1.079       .  S
C683        C684   1.423       .  A
C684       O1846   1.373   1_455  S
C685        C690   1.408       .  A
C685        C694   1.404       .  A
O686        H702   0.992       .  S
O688       C1842   1.374       .  S
O688        H699   0.991       .  S
C690        C691   1.402       .  A
C690        O695   1.373       .  S
C691        C692   1.405       .  A
C691        H696   1.084       .  S
C692        C693   1.411       .  A
C693        C694   1.400       .  A
C693        O697   1.372       .  S
C694        H698   1.084       .  S
O695        H700   0.992       .  S
O697        H701   0.992       .  S
C703        C704   1.398       .  A
C703        C708   1.399       .  A
C703        H713   1.084       .  S
C704        C709   1.476       .  S
C704        C705   1.405       .  A
C705        C706   1.403       .  A
C705        O710   1.371       .  S
C706        C707   1.409       .  A
C706        H711   1.083       .  S
C707        C708   1.417       .  A
C708        O712   1.371       .  S
C709        C714   1.401       .  A
C709        C718   1.394       .  A
O710        H726   0.992       .  S
O712        H723   0.992       .  S
C714        C715   1.403       .  A
C714        O719   1.371       .  S
C715        C716   1.419       .  A
C715        H720   1.079       .  S
C716        C717   1.426       .  A
C717        C718   1.398       .  A
C717        O721   1.372       .  S
C718        H722   1.084       .  S
O719        H724   0.992       .  S
O721       H1883   0.992   1_565  S
H725       O1879   0.992       .  S
C727        C728   1.400       .  A
C727        C732   1.406       .  A
C727        H737   1.083       .  S
C728        C733   1.480       .  S
C728        C729   1.400       .  A
C729        C730   1.397       .  A
C729        O734   1.372       .  S
C730        C731   1.418       .  A
C730        H735   1.080       .  S
C731        C732   1.422       .  A
C732        O736   1.370       .  S
C733        C738   1.406       .  A
C733        C742   1.400       .  A
O734        H750   0.992       .  S
O736        H747   0.992       .  S
C738        C739   1.398       .  A
C738        O743   1.372       .  S
C739        C740   1.408       .  A
C739        H744   1.083       .  S
C740        C741   1.417       .  A
C741        C742   1.405       .  A
C741        O745   1.371       .  S
C742        H746   1.083       .  S
O743        H748   0.992       .  S
O745        H749   0.992       .  S
C751        C756   1.404       .  A
C751        H761   1.084       .  S
C752        C757   1.483       .  S
C752        C753   1.407       .  A
C753        O758   1.373       .  S
C754        C755   1.407       .  A
C754        H759   1.083       .  S
C755        C756   1.417       .  A
C756        O760   1.372       .  S
C757        C762   1.404       .  A
C757        C766   1.399       .  A
O758        H774   0.992       .  S
O760        H771   0.992       .  S
C762        C763   1.397       .  A
C762        O767   1.372       .  S
C763        C764   1.416       .  A
C763        H768   1.077       .  S
C764        C765   1.426       .  A
C765        C766   1.403       .  A
C765        O769   1.373       .  S
C766        H770   1.084       .  S
O767        H772   0.992       .  S
O769        H773   0.992       .  S
C775        C776   1.398       .  A
C775        C780   1.397       .  A
C775        H785   1.084       .  S
C776        C781   1.487       .  S
C776        C777   1.406       .  A
C777        C778   1.402       .  A
C777        O782   1.372       .  S
C778        C779   1.417       .  A
C778        H783   1.078       .  S
C779        C780   1.426       .  A
C780        O784   1.374       .  S
C781        C786   1.410       .  A
C781       C1948   1.406       .  A
O782        H798   0.991       .  S
O784        H795   0.992       .  S
C786       C1945   1.397       .  A
C786        O791   1.372       .  S
C787       C1944   1.397   1_455  A
C787        C788   1.403       .  A
C787        H792   1.084       .  S
C788        C789   1.410       .  A
C789        C790   1.403       .  A
C789        O793   1.371       .  S
C790       C1939   1.406   1_455  A
C790        H794   1.083       .  S
O791        H796   0.992       .  S
O793        H797   0.991       .  S
C799        C800   1.395       .  A
C799        C804   1.404       .  A
C799        H809   1.084       .  S
C800        C805   1.480       .  S
C800        C801   1.401       .  A
C801        C802   1.401       .  A
C801        O806   1.371       .  S
C802        C803   1.417       .  A
C802        H807   1.083       .  S
C803        C804   1.429       .  A
C804        O808   1.373       .  S
C805        C810   1.400       .  A
C805        C814   1.398       .  A
O806        H822   0.992       .  S
O808        H819   0.992       .  S
C810        C811   1.398       .  A
C810        O815   1.372       .  S
C811        C812   1.418       .  A
C811        H816   1.083       .  S
C812        C813   1.429       .  A
C813        C814   1.406       .  A
C813        O817   1.372       .  S
C814        H818   1.084       .  S
O815        H820   0.992       .  S
O817        H821   0.992       .  S
C823        C824   1.403       .  A
C823        C828   1.398       .  A
C823        H833   1.084       .  S
C824        C829   1.487       .  S
C824        C825   1.409       .  A
C825        C826   1.405       .  A
C825        O830   1.371       .  S
C826        C827   1.406       .  A
C826        H831   1.083       .  S
C827        C828   1.412       .  A
C828        O832   1.372       .  S
C829        C834   1.403       .  A
C829        C838   1.402       .  A
O830        H846   0.992       .  S
O832        H843   0.992       .  S
C834        C835   1.393       .  A
C834        O839   1.372       .  S
C835        C836   1.416       .  A
C835        H840   1.080       .  S
C836        C837   1.428       .  A
C837        C838   1.408       .  A
C837        O841   1.371       .  S
C838        H842   1.084       .  S
O839        H844   0.992       .  S
O841        H845   0.992       .  S
C847        C848   1.399       .  A
C847        C852   1.403       .  A
C847        H857   1.083       .  S
C848        C853   1.474       .  S
C848        C849   1.404       .  A
C849        C850   1.398       .  A
C849        O854   1.373       .  S
C850        C851   1.408       .  A
C850        H855   1.083       .  S
C851        C852   1.416       .  A
C852        O856   1.371       .  S
C853        C858   1.401       .  A
C853        C862   1.397       .  A
O854        H870   0.991       .  S
O856        H867   0.992       .  S
C858        C859   1.397       .  A
C858        O863   1.372       .  S
C859        C860   1.416       .  A
C859        H864   1.081       .  S
C860        C861   1.423       .  A
C861        C862   1.403       .  A
C861        O865   1.371       .  S
C862        H866   1.084       .  S
O863        H868   0.991       .  S
O865        H869   0.992       .  S
C871        C872   1.396       .  A
C871        C876   1.401       .  A
C871        H881   1.084       .  S
C872        C877   1.484       .  S
C872        C873   1.403       .  A
C873        C874   1.403       .  A
C873        O878   1.372       .  S
C874        C875   1.416       .  A
C874        H879   1.082       .  S
C875        C876   1.431       .  A
C876        O880   1.374       .  S
C877        C882   1.408       .  A
C877        C886   1.401       .  A
O878        H894   0.992       .  S
O880        H891   0.992       .  S
C882        C883   1.404       .  A
C882        O887   1.371       .  S
C883        C884   1.408       .  A
C883        H888   1.083       .  S
C884        C885   1.416       .  A
C885        C886   1.399       .  A
C885        O889   1.372       .  S
C886        H890   1.084       .  S
O887        H892   0.992       .  S
C895        C896   1.399       .  A
C895        C900   1.405       .  A
C895        H905   1.083       .  S
C896        C901   1.484       .  S
C896        C897   1.401       .  A
C897        C898   1.394       .  A
C897        O902   1.373       .  S
C898        C899   1.420       .  A
C898        H903   1.076       .  S
C899        C900   1.429       .  A
C900        O904   1.373       .  S
C901        C906   1.408       .  A
C901        C910   1.403       .  A
O902        H918   0.992       .  S
O904        H915   0.992       .  S
C906        C907   1.402       .  A
C906        O911   1.372       .  S
C907        C908   1.407       .  A
C907        H912   1.084       .  S
C908        C909   1.410       .  A
C909        C910   1.398       .  A
C909        O913   1.371       .  S
C910        H914   1.084       .  S
O911        H916   0.992       .  S
O913        H917   0.992       .  S
C919        C920   1.395       .  A
C919        C924   1.397       .  A
C919        H929   1.084       .  S
C920        C925   1.480       .  S
C920        C921   1.404       .  A
C921        C922   1.402       .  A
C921        O926   1.371       .  S
C922        C923   1.418       .  A
C922        H927   1.084       .  S
C923        C924   1.431       .  A
C924        O928   1.372       .  S
C925        C930   1.408       .  A
C925        C934   1.403       .  A
O926        H942   0.992       .  S
O928        H939   0.991       .  S
C930        C931   1.399       .  A
C930        O935   1.372       .  S
C931        C932   1.404       .  A
C931        H936   1.084       .  S
C932        C933   1.412       .  A
C933        C934   1.401       .  A
C933        O937   1.372       .  S
C934        H938   1.084       .  S
O935        H940   0.992       .  S
O937        H941   0.992       .  S
C943        C944   1.397       .  A
C943        C948   1.398       .  A
C943        H953   1.084       .  S
C944        C949   1.467       .  S
C944        C945   1.403       .  A
C945        C946   1.397       .  A
C945        O950   1.372       .  S
C946        C947   1.407       .  A
C946        H951   1.083       .  S
C947        C948   1.417       .  A
C948        O952   1.372       .  S
C949        C954   1.398       .  A
C949        C958   1.395       .  A
O950        H966   0.992       .  S
O952        H963   0.992       .  S
C954        C955   1.391       .  A
C954        O959   1.372       .  S
C955        C956   1.418       .  A
C955        H960   1.083       .  S
C956        C957   1.428       .  A
C957        C958   1.403       .  A
C957        O961   1.371       .  S
C958        H962   1.084       .  S
O959        H964   0.992       .  S
O961        H965   0.992       .  S
C967       C1547   1.396   1_565  A
C967        C972   1.403       .  A
C967        H977   1.084       .  S
C968        C973   1.481   1_556  S
C968       C1546   1.397       .  A
C968        C969   1.401   1_655  A
C969        C970   1.400       .  A
C969        O974   1.371       .  S
C970        C971   1.418       .  A
C970        H975   1.083       .  S
C971       C1551   1.428   1_455  A
C972       C1550   1.428       .  A
C972        O976   1.370       .  S
C973       C1557   1.403       .  A
C973        C982   1.396   1_655  A
O974        H990   0.992       .  S
O976        H987   0.992       .  S
C978       C1552   1.401   1_565  A
C978        C979   1.400       .  A
C978        O983   1.372       .  S
C979       C1559   1.419   1_565  A
C979        H984   1.079       .  S
C980       C1558   1.418       .  A
C980        C981   1.425   1_655  A
C981        C982   1.401       .  A
C981        O985   1.372       .  S
C982        H986   1.084       .  S
O983        H988   0.992   1_565  S
O985        H989   0.992       .  S
C991        C992   1.406       .  A
C991        C996   1.405       .  A
C991       H1001   1.080       .  S
C992        C997   1.512       .  S
C992        C993   1.414       .  A
C993        C994   1.399       .  A
C993        O998   1.372       .  S
C994        C995   1.415       .  A
C994        H999   1.072       .  S
C995        C996   1.427       .  A
C996       O1000   1.373       .  S
C997       C1002   1.414       .  A
C997       C1006   1.405       .  A
O998       H1014   0.992       .  S
O1000      H1011   0.992       .  S
C1002      C1003   1.407       .  A
C1002      O1007   1.372       .  S
C1003      C1004   1.416       .  A
C1003      H1008   1.074       .  S
C1004      C1005   1.424       .  A
C1005      C1006   1.399       .  A
C1005      O1009   1.370       .  S
C1006      H1010   1.081       .  S
O1007      H1012   0.992       .  S
O1009      H1013   0.992       .  S
C1015      C1016   1.397       .  A
C1015      C1020   1.401       .  A
C1015      H1025   1.084       .  S
C1016      C1021   1.486       .  S
C1016      C1017   1.402       .  A
C1017      C1018   1.402       .  A
C1017      O1022   1.371       .  S
C1018      C1019   1.420       .  A
C1018      H1023   1.083       .  S
C1019      C1183   1.568       .  S
C1019      C1020   1.430       .  A
C1020      O2182   1.371       .  S
C1021      C1026   1.406       .  A
C1021      C1030   1.404       .  A
O1022      H1038   0.992       .  S
O1024      C2178   1.371   1_455  S
O1024      H1035   0.993       .  S
C1026      C1027   1.398       .  A
C1026      O1031   1.373       .  S
C1027      C1028   1.408       .  A
C1027      H1032   1.083       .  S
C1028      C1029   1.415       .  A
C1029      C1030   1.407       .  A
C1029      O1033   1.371       .  S
C1030      H1034   1.083       .  S
O1031      H1036   0.992       .  S
O1033      H1037   0.992       .  S
C1039      C1040   1.402       .  A
C1039      C1044   1.398       .  A
C1039      H1049   1.084       .  S
C1040      C1045   1.479       .  S
C1040      C1041   1.404       .  A
C1041      C1042   1.402       .  A
C1041      O1046   1.371       .  S
C1042      C1043   1.410       .  A
C1042      H1047   1.083       .  S
C1043      C1044   1.414       .  A
C1044      O1048   1.372       .  S
C1045      C1050   1.401       .  A
C1045      C1054   1.401       .  A
O1046      H1062   0.992       .  S
O1048      H1059   0.992       .  S
C1050      C1051   1.396       .  A
C1050      O1055   1.372       .  S
C1051      C1052   1.416       .  A
C1051      H1056   1.080       .  S
C1052      C1053   1.421       .  A
C1053      C1054   1.405       .  A
C1054      H1058   1.083       .  S
O1055      H1060   0.992       .  S
O1057      H1061   0.992       .  S
C1063      C1064   1.398       .  A
C1063      C1068   1.397       .  A
C1063      H1073   1.084       .  S
C1064      C1069   1.488       .  S
C1064      C1065   1.406       .  A
C1065      C1066   1.406       .  A
C1065      O1070   1.373       .  S
C1066      C1067   1.418       .  A
C1066      H1071   1.080       .  S
C1067      C1762   1.568       .  S
C1067      C1068   1.424       .  A
C1068      O2230   1.371       .  S
C1069      C1074   1.411       .  A
C1069      C1078   1.404       .  A
O1070      H1086   0.992       .  S
O1072      C2226   1.371   1_455  S
O1072      H1083   0.992   1_455  S
C1074      C1075   1.404       .  A
C1074      O1079   1.371       .  S
C1075      C1076   1.404       .  A
C1075      H1080   1.083       .  S
C1076      C1077   1.411       .  A
C1077      C1078   1.398       .  A
C1077      O1081   1.372       .  S
C1078      H1082   1.084       .  S
O1079      H1084   0.992       .  S
O1081      H1085   0.992       .  S
C1087      C1088   1.403       .  A
C1087      C1092   1.398       .  A
C1087      H1097   1.084       .  S
C1088      C1093   1.488       .  S
C1088      C1089   1.410       .  A
C1089      C1090   1.402       .  A
C1089      O1094   1.372       .  S
C1090      C1091   1.408       .  A
C1090      H1095   1.083       .  S
C1091      C1092   1.414       .  A
C1092      O1096   1.372       .  S
C1093      C1098   1.406       .  A
C1093      C1102   1.403       .  A
O1094      H1110   0.992       .  S
O1096      H1107   0.992       .  S
C1098      C1099   1.393       .  A
C1098      O1103   1.372       .  S
C1099      C1100   1.416       .  A
C1099      H1104   1.077       .  S
C1100      C1101   1.425       .  A
C1101      C1102   1.406       .  A
C1101      O1105   1.373       .  S
C1102      H1106   1.083       .  S
O1103      H1108   0.992       .  S
O1105      H1109   0.991       .  S
C1111      C2270   1.401       .  A
C1111      C1116   1.397       .  A
C1111      H2279   1.084       .  S
C1112      C1117   1.484       .  S
C1112      C2269   1.402       .  A
C1112      C2271   1.409   1_455  A
C1113      C2270   1.409       .  A
C1113      C1114   1.401       .  A
C1113      O2276   1.372       .  S
C1114      C1115   1.406       .  A
C1114      H1119   1.083       .  S
C1115      C1116   1.412       .  A
C1116      O1120   1.372       .  S
C1117      C1122   1.403       .  A
C1117      C1126   1.394       .  A
O1118      C2271   1.372   1_455  S
O1118      H1134   0.992   1_455  S
O1120      H1131   0.992       .  S
H1121      C2269   1.084       .  S
C1122      C1123   1.401       .  A
C1122      O1127   1.371       .  S
C1123      C1124   1.420       .  A
C1123      H1128   1.084       .  S
C1124      C1125   1.435       .  A
C1125      C1126   1.398       .  A
C1125      O1129   1.369       .  S
C1126      H1130   1.084       .  S
O1127      H1132   0.992       .  S
O1129      H1133   0.992       .  S
C1135      C1140   1.404       .  A
C1135      H1145   1.084       .  S
C1136      C1141   1.487       .  S
C1136      C1137   1.408       .  A
C1137      O1142   1.372       .  S
C1138      C1139   1.407       .  A
C1138      H1143   1.083       .  S
C1139      C1140   1.413       .  A
C1140      O1144   1.371       .  S
C1141      C1146   1.402       .  A
C1141      C1150   1.400       .  A
O1142      H1158   0.992       .  S
O1144      H1155   0.992       .  S
C1146      C1147   1.398       .  A
C1146      O1151   1.372       .  S
C1147      C1148   1.420       .  A
C1147      H1152   1.083       .  S
C1148      C1149   1.428       .  A
C1149      C1150   1.404       .  A
C1149      O1153   1.368       .  S
C1150      H1154   1.084       .  S
O1151      H1156   0.992       .  S
O1153      H1157   0.992       .  S
O1159      C1175   1.276       .  A
O1159     Zn1165   2.032       .  S
C1160      O1176   1.275       .  A
C1160      O1173   1.275       .  A
C1160      C1718   1.491       .  S
O1161      C1174   1.277       .  A
O1161     Cd1168   2.083       .  S
O1162      C1180   1.275       .  A
O1162     Cd1171   2.063       .  S
O1163      C1177   1.274       .  A
O1163     Cd1167   2.068       .  S
O1164      C1175   1.274       .  A
O1164     Cd1167   2.057       .  S
Zn1165     O1176   2.030       .  S
Zn1165     O1178   2.009       .  S
Zn1165     O1170   1.946       .  S
O1166      C1177   1.277       .  A
O1166     Cd1171   2.082       .  S
Cd1167     O1169   2.067       .  S
Cd1167     O1170   1.989       .  S
Cd1168     O1172   2.092       .  S
Cd1168     O1181   2.085       .  S
Cd1168     O1170   2.016       .  S
O1169      C1179   1.275       .  A
O1170     Cd1171   1.997       .  S
Cd1171     O1173   2.077       .  S
O1172      C1179   1.277       .  A
C1174      O1178   1.274       .  A
C1174      C1622   1.491       .  S
C1175      C1670   1.484       .  S
C1177      C1694   1.485       .  S
C1179      C1607   1.494       .  S
C1180      O1181   1.277       .  A
C1180      C1655   1.480       .  S
C1182      C1574   1.565       .  S
C1182      C1679   1.561       .  S
C1182      C1703   1.571       .  S
C1182      C1727   1.565       .  S
C1183      C1550   1.566       .  S
C1183      C1631   1.564   1_565  S
O1184      C1200   1.275       .  A
O1184     Zn1769   2.028       .  S
C1185      O1201   1.274       .  A
C1185      O1198   1.274       .  A
C1185      C1511   1.479       .  S
O1186      C1199   1.279       .  A
O1186     Cd1772   2.091   1_645  S
O1187      C1205   1.275       .  A
O1187     Cd1196   2.070       .  S
O1188      C1202   1.276       .  A
O1189      C1200   1.276       .  A
O1189     Cd1192   2.083       .  S
Zn1190     O1763   2.024   1_545  S
Zn1190     O1203   1.997       .  S
Zn1190     O1774   1.939   1_645  S
O1191      C1202   1.272       .  A
O1191     Cd1775   2.051       .  S
Cd1192     O1194   2.071       .  S
Cd1192     O1195   2.001   1_655  S
Cd1193     O1765   2.083   1_455  S
Cd1193     O1197   2.082   1_455  S
Cd1193     O1195   2.016       .  S
O1194      C1204   1.277       .  A
O1195     Zn1769   1.944   1_455  S
Cd1196     O1770   2.060   1_545  S
Cd1196     O1198   2.066       .  S
O1197      C1204   1.277       .  A
C1199      O1203   1.273       .  A
C1199      C1463   1.490       .  S
C1200      C1487   1.487       .  S
C1202      C1526   1.481       .  S
C1204      C1430   1.489       .  S
C1205      O1206   1.278       .  A
C1205      C1406   1.485       .  S
C1207      C1391   1.564       .  S
C1207      C1415   1.570       .  S
C1207      C1439   1.564       .  S
C1207      C1454   1.564       .  S
C1208      C1478   1.585       .  S
C1208      C1502   1.572       .  S
C1208      C1535   1.557       .  S
C1208      C1583   1.576       .  S
O1209      C1225   1.277       .  A
O1209     Zn1215   2.038       .  S
C1210      O1226   1.276       .  A
C1210      O1223   1.273       .  A
C1210      C1286   1.486       .  S
O1211      C1224   1.278       .  A
O1211     Cd1218   2.089       .  S
O1212      C1230   1.274       .  A
O1212     Cd1221   2.061       .  S
O1213      C1227   1.275       .  A
O1213     Cd1217   2.073       .  S
O1214      C1225   1.274       .  A
O1214     Cd1217   2.067       .  S
Zn1215     O1226   2.032       .  S
Zn1215     O1228   2.010       .  S
Zn1215     O1220   1.945       .  S
O1216      C1227   1.273       .  A
O1216     Cd1221   2.057       .  S
Cd1217     O1219   2.067       .  S
Cd1217     O1220   1.994       .  S
Cd1218     O1222   2.096       .  S
Cd1218     O1231   2.098       .  S
Cd1218     O1220   2.015       .  S
O1219      C1229   1.276       .  A
O1220     Cd1221   1.990       .  S
Cd1221     O1223   2.060       .  S
O1222      C1229   1.278       .  A
C1224      O1228   1.275       .  A
C1224      C1334   1.491       .  S
C1225      C1238   1.488       .  S
C1227      C1271   1.480       .  S
C1229      C1319   1.494       .  S
C1230      O1231   1.278       .  A
C1230      C1367   1.486       .  S
C1232      C1262   1.558       .  S
C1232      C1874   1.568   1_545  S
C1232      C1559   1.567       .  S
C1233      C1310   1.569       .  S
C1233      C1343   1.566       .  S
C1233      C1358   1.571       .  S
C1233      C1382   1.564       .  S
C1234      C1235   1.402       .  A
C1234      C1239   1.402       .  A
C1234      H1244   1.084       .  S
C1235      C1240   1.482       .  S
C1235      C1236   1.406       .  A
C1236      C1237   1.403       .  A
C1236      O1241   1.372       .  S
C1237      C1238   1.408       .  A
C1237      H1242   1.083       .  S
C1238      C1239   1.412       .  A
C1239      O1243   1.371       .  S
C1240      C1245   1.402       .  A
C1240      C1249   1.395       .  A
O1241      H1257   0.992       .  S
O1243      H1254   0.992       .  S
C1245      C1246   1.403       .  A
C1245      O1250   1.372       .  S
C1246      C1247   1.418       .  A
C1246      H1251   1.083       .  S
C1247      C1248   1.432       .  A
C1248      C1249   1.402       .  A
C1248      O1831   1.373       .  S
C1249      H1253   1.084       .  S
O1250      H1255   0.992       .  S
O1252      C1827   1.373       .  S
O1252      H1256   0.993       .  S
C1258      C1259   1.400       .  A
C1258      C1263   1.402       .  A
C1258      H1268   1.084       .  S
C1259      C1264   1.481       .  S
C1259      C1260   1.404       .  A
C1260      C1261   1.398       .  A
C1260      O1265   1.373       .  S
C1261      C1262   1.415       .  A
C1261      H1266   1.079       .  S
C1262      C1263   1.423       .  A
C1264      C1269   1.408       .  A
C1264      C1273   1.403       .  A
O1265      H1281   0.992       .  S
O1267      H1278   0.991       .  S
C1269      C1270   1.403       .  A
C1269      O1274   1.373       .  S
C1270      C1271   1.405       .  A
C1270      H1275   1.084       .  S
C1271      C1272   1.411       .  A
C1272      C1273   1.397       .  A
C1272      O1276   1.372       .  S
C1273      H1277   1.084       .  S
O1274      H1279   0.992       .  S
O1276      H1280   0.992       .  S
C1282      C1283   1.399       .  A
C1282      C1287   1.400       .  A
C1282      H1292   1.084       .  S
C1283      C1288   1.476       .  S
C1283      C1284   1.406       .  A
C1284      C1285   1.399       .  A
C1284      O1289   1.372       .  S
C1285      C1286   1.407       .  A
C1285      H1290   1.083       .  S
C1286      C1287   1.416       .  A
C1287      O1291   1.371       .  S
C1288      C1293   1.402       .  A
C1288      C1297   1.395       .  A
O1289      H1305   0.992       .  S
O1291      H1302   0.992       .  S
C1293      C1294   1.400       .  A
C1293      O1298   1.371       .  S
C1294      C1295   1.418       .  A
C1294      H1299   1.080       .  S
C1295      C1811   1.565       .  S
C1295      C1296   1.426       .  A
C1296      C1297   1.398       .  A
C1296      O1300   1.373       .  S
C1297      H1301   1.084       .  S
O1298      H1303   0.992       .  S
C1306      C1307   1.401       .  A
C1306      C1311   1.407       .  A
C1306      H1316   1.083       .  S
C1307      C1312   1.484       .  S
C1307      C1308   1.402       .  A
C1308      C1309   1.397       .  A
C1308      O1313   1.373       .  S
C1309      C1310   1.416       .  A
C1309      H1314   1.080       .  S
C1310      C1311   1.424       .  A
C1311      O1315   1.371       .  S
C1312      C1317   1.407       .  A
C1312      C1321   1.403       .  A
O1313      H1329   0.992       .  S
O1315      H1326   0.992       .  S
C1317      C1318   1.397       .  A
C1317      O1322   1.372       .  S
C1318      C1319   1.408       .  A
C1318      H1323   1.083       .  S
C1319      C1320   1.416       .  A
C1320      C1321   1.407       .  A
C1320      O1324   1.371       .  S
C1321      H1325   1.083       .  S
O1322      H1327   0.992       .  S
O1324      H1328   0.992       .  S
C1330      C1910   1.404       .  A
C1330      C1335   1.402       .  A
C1330      H1340   1.084       .  S
C1331      C1336   1.482       .  S
C1331      C1909   1.401   1_545  A
C1331      C1332   1.406       .  A
C1332      C1912   1.399   1_545  A
C1332      O1337   1.372       .  S
C1333      C1911   1.401       .  A
C1333      C1334   1.409       .  A
C1333      H1338   1.083       .  S
C1334      C1335   1.413       .  A
C1335      O1339   1.371       .  S
C1336      C1341   1.402       .  A
C1336      C1345   1.399       .  A
O1337      H1353   0.992       .  S
O1339      H1350   0.992       .  S
C1341      C1342   1.396       .  A
C1341      O1346   1.372       .  S
C1342      C1343   1.418       .  A
C1342      H1347   1.076       .  S
C1343      C1344   1.426       .  A
C1344      C1345   1.405       .  A
C1344      O1348   1.373       .  S
C1345      H1349   1.084       .  S
O1346      H1351   0.992       .  S
O1348      H1352   0.992       .  S
C1354      C1355   1.401       .  A
C1354      C1359   1.400       .  A
C1354      H1364   1.083       .  S
C1355      C1360   1.495       .  S
C1355      C1356   1.407       .  A
C1356      C1357   1.405       .  A
C1356      O1361   1.371       .  S
C1357      C1358   1.418       .  A
C1357      H1362   1.079       .  S
C1358      C1359   1.424       .  A
C1359      O1363   1.374       .  S
C1360      C1365   1.411       .  A
O1361      H1377   0.992       .  S
O1363      H1374   0.992       .  S
C1365      O1370   1.372       .  S
C1366      C1367   1.405       .  A
C1366      H1371   1.084       .  S
C1367      C1368   1.410       .  A
C1368      C1369   1.406       .  A
C1368      O1372   1.371       .  S
C1369      H1373   1.083       .  S
O1370      H1375   0.992       .  S
O1372      H1376   0.991       .  S
C1378      C1379   1.397       .  A
C1378      C1383   1.406       .  A
C1378      H1388   1.084       .  S
C1379      C1384   1.481       .  S
C1379      C1380   1.401       .  A
C1380      C1381   1.400       .  A
C1380      O1385   1.371       .  S
C1381      C1382   1.417       .  A
C1381      H1386   1.083       .  S
C1382      C1383   1.429       .  A
C1383      O1387   1.373       .  S
C1384      C1389   1.400       .  A
C1384      C1393   1.397       .  A
O1385      H1401   0.992       .  S
O1387      H1398   0.993       .  S
C1389      C1390   1.399       .  A
C1389      O1394   1.371       .  S
C1390      C1391   1.418       .  A
C1390      H1395   1.083       .  S
C1391      C1392   1.429       .  A
C1392      C1393   1.405       .  A
C1392      O1396   1.371       .  S
C1393      H1397   1.084       .  S
O1394      H1399   0.992       .  S
O1396      H1400   0.992       .  S
C1402      C1403   1.404       .  A
C1402      C1407   1.401       .  A
C1402      H1412   1.084       .  S
C1403      C1408   1.489       .  S
C1403      C1404   1.410       .  A
C1404      C1405   1.404       .  A
C1404      O1409   1.371       .  S
C1405      C1406   1.405       .  A
C1405      H1410   1.083       .  S
C1406      C1407   1.412       .  A
C1407      O1411   1.372       .  S
C1408      C1413   1.404       .  A
C1408      C1417   1.401       .  A
O1409      H1425   0.992       .  S
O1411      H1422   0.992   1_545  S
C1413      C1414   1.398       .  A
C1413      O1418   1.372       .  S
C1414      C1415   1.417       .  A
C1414      H1419   1.082       .  S
C1415      C1416   1.428       .  A
C1416      C1417   1.405       .  A
C1416      O1420   1.370       .  S
C1417      H1421   1.084       .  S
O1418      H1423   0.992       .  S
O1420      H1424   0.991       .  S
C1426      C1427   1.401       .  A
C1426      C1431   1.406       .  A
C1426      H1436   1.083       .  S
C1427      C1432   1.477       .  S
C1427      C1428   1.404       .  A
C1428      C1429   1.397       .  A
C1428      O1433   1.372       .  S
C1429      C1430   1.407       .  A
C1429      H1434   1.083       .  S
C1430      C1431   1.416       .  A
C1431      O1435   1.371       .  S
C1432      C1437   1.401       .  A
C1432      C1441   1.398       .  A
O1433      H1449   0.991       .  S
O1435      H1446   0.992       .  S
C1437      C1438   1.398       .  A
C1437      O1442   1.372       .  S
C1438      C1439   1.416       .  A
C1438      H1443   1.080       .  S
C1439      C1440   1.424       .  A
C1440      C1441   1.405       .  A
C1440      O1444   1.372       .  S
C1441      H1445   1.084       .  S
O1442      H1447   0.992       .  S
O1444      H1448   0.991       .  S
C1450      C1451   1.397       .  A
C1450      C1455   1.401       .  A
C1450      H1460   1.084       .  S
C1451      C1456   1.484       .  S
C1451      C1452   1.403       .  A
C1452      C1453   1.402       .  A
C1452      O1457   1.372       .  S
C1453      C1454   1.417       .  A
C1453      H1458   1.082       .  S
C1454      C1455   1.430       .  A
C1455      O1459   1.373       .  S
C1456      C1461   1.409       .  A
C1456      C1465   1.401       .  A
O1457      H1473   0.992       .  S
O1459      H1470   0.992       .  S
C1461      C1462   1.403       .  A
C1461      O1466   1.371       .  S
C1462      C1463   1.408       .  A
C1462      H1467   1.083       .  S
C1463      C1464   1.417       .  A
C1464      C1465   1.396       .  A
C1464      O1468   1.372       .  S
C1465      H1469   1.084       .  S
O1466      H1471   0.992       .  S
O1468      H2051   0.992       .  S
H1472      O2047   0.992       .  S
C1474      C1475   1.400       .  A
C1474      C1479   1.406       .  A
C1474      H1484   1.083       .  S
C1475      C1480   1.491       .  S
C1475      C1476   1.402       .  A
C1476      C1477   1.398       .  A
C1476      O1481   1.372       .  S
C1477      C1478   1.422       .  A
C1477      H1482   1.075       .  S
C1478      C1479   1.430       .  A
C1479      O1483   1.373       .  S
C1480      C1485   1.410       .  A
C1480      C1489   1.405       .  A
O1481      H1497   0.991       .  S
O1483      H1494   0.992       .  S
C1485      C1486   1.403       .  A
C1485      O1490   1.372       .  S
C1486      C1487   1.407       .  A
C1486      H1491   1.084       .  S
C1487      C1488   1.411       .  A
C1488      C1489   1.402       .  A
C1488      O1492   1.371       .  S
C1489      H1493   1.084       .  S
O1490      H1495   0.992       .  S
O1492      H1496   0.992       .  S
C1498      C1499   1.395       .  A
C1498      C1503   1.396       .  A
C1498      H1508   1.084       .  S
C1499      C1504   1.480       .  S
C1499      C1500   1.404       .  A
C1500      C1501   1.401       .  A
C1500      O1505   1.371       .  S
C1501      C1502   1.417       .  A
C1501      H1506   1.084       .  S
C1502      C1503   1.433       .  A
C1503      O1507   1.372       .  S
C1504      C1509   1.408       .  A
C1504      C1513   1.403       .  A
O1505      H1521   0.992       .  S
O1507      H1518   0.991       .  S
C1509      C1510   1.399       .  A
C1509      O1514   1.372       .  S
C1510      C1511   1.405       .  A
C1510      H1515   1.084       .  S
C1511      C1512   1.411       .  A
C1512      C1513   1.400       .  A
C1512      O1516   1.372       .  S
C1513      H1517   1.084       .  S
O1514      H1519   0.992       .  S
O1516      H1520   0.992       .  S
C1522      C1523   1.400       .  A
C1522      C1527   1.397       .  A
C1522      H1532   1.084       .  S
C1523      C1528   1.477       .  S
C1523      C1524   1.407       .  A
C1524      C1525   1.401       .  A
C1524      O1529   1.372       .  S
C1525      C1526   1.406       .  A
C1525      H1530   1.083       .  S
C1526      C1527   1.414       .  A
C1527      O1531   1.372       .  S
C1528      C1533   1.400       .  A
C1528      C1537   1.398       .  A
O1529      H1545   0.992       .  S
O1531      H1542   0.991       .  S
C1533      C1534   1.393       .  A
C1533      O1538   1.372       .  S
C1534      C1535   1.418       .  A
C1534      H1539   1.083       .  S
C1535      C1536   1.427       .  A
C1536      C1537   1.405       .  A
C1536      O1540   1.370       .  S
C1537      H1541   1.084       .  S
O1538      H1543   0.992       .  S
O1540      H1544   0.992       .  S
C1546      C1551   1.404       .  A
C1546      H1556   1.084       .  S
C1547      C1552   1.479   1_556  S
C1547      C1548   1.400       .  A
C1548      C1549   1.400       .  A
C1548      O1553   1.371       .  S
C1549      C1550   1.419   1_545  A
C1549      H1554   1.083       .  S
C1551      O1555   1.371       .  S
C1552      C1561   1.397       .  A
O1553      H1569   0.992       .  S
O1555      H1566   0.992   1_655  S
C1557      C1558   1.403       .  A
C1557      O1562   1.372       .  S
C1558      H1563   1.079       .  S
C1559      C1560   1.425       .  A
C1560      C1561   1.402       .  A
C1560      O1564   1.372       .  S
C1561      H1565   1.084       .  S
O1562      H1567   0.992       .  S
O1564      H1568   0.992       .  S
C1570      C1571   1.405       .  A
C1570      C1575   1.401       .  A
C1570      H1580   1.080       .  S
C1571      C1576   1.511       .  S
C1571      C1572   1.417       .  A
C1572      C1573   1.401       .  A
C1572      O1577   1.371       .  S
C1573      C1574   1.413       .  A
C1573      H1578   1.076       .  S
C1574      C1575   1.423       .  A
C1575      O1579   1.373       .  S
C1576      C1581   1.414       .  A
C1576      C1585   1.403       .  A
O1577      H1593   0.992       .  S
O1579      H1590   0.992       .  S
C1581      C1582   1.405       .  A
C1581      O1586   1.373       .  S
C1582      C1583   1.416       .  A
C1582      H1587   1.071       .  S
C1583      C1584   1.428       .  A
C1584      C1585   1.399       .  A
C1584      O1588   1.370       .  S
C1585      H1589   1.081       .  S
O1586      H1591   0.992       .  S
O1588      H1592   0.992       .  S
C1594      C1595   1.397       .  A
C1594      C1599   1.402       .  A
C1594      H1604   1.084       .  S
C1595      C1600   1.483       .  S
C1595      C1596   1.401       .  A
C1596      C1597   1.401       .  A
C1596      O1601   1.371       .  S
C1597      C1598   1.420       .  A
C1597      H1602   1.083       .  S
C1598      C1599   1.430       .  A
C1600      C1605   1.405       .  A
C1600      C1609   1.403       .  A
O1601      H1617   0.992       .  S
O1603      H1614   0.993       .  S
C1605      C1606   1.399       .  A
C1605      O1610   1.373       .  S
C1606      C1607   1.409       .  A
C1606      H1611   1.083       .  S
C1607      C1608   1.416       .  A
C1608      C1609   1.405       .  A
C1608      O1612   1.371       .  S
C1609      H1613   1.084       .  S
O1610      H1615   0.991       .  S
O1612      H1616   0.992       .  S
C1618      C1619   1.401       .  A
C1618      C1623   1.395       .  A
C1618      H1628   1.084       .  S
C1619      C1624   1.483       .  S
C1619      C1620   1.407       .  A
C1620      C1621   1.405       .  A
C1620      O1625   1.371       .  S
C1621      C1622   1.411       .  A
C1621      H1626   1.083       .  S
C1622      C1623   1.415       .  A
C1623      O1627   1.372       .  S
C1624      C1629   1.403       .  A
C1624      C1633   1.400       .  A
O1625      H1641   0.991       .  S
O1627      H1638   0.992       .  S
C1629      C1630   1.397       .  A
C1629      O1634   1.373       .  S
C1630      C1631   1.416       .  A
C1630      H1635   1.079       .  S
C1631      C1632   1.423       .  A
C1632      C1633   1.405       .  A
C1632      O2215   1.370   1_545  S
C1633      H1637   1.083       .  S
O1634      H1639   0.992       .  S
O1636      C2211   1.369       .  S
O1636      H1640   0.992       .  S
C1642      C1643   1.400       .  A
C1642      C1647   1.397       .  A
C1642      H1652   1.084       .  S
C1643      C1648   1.489       .  S
C1643      C1644   1.406       .  A
C1644      C1645   1.406       .  A
C1644      O1649   1.373       .  S
C1645      C1646   1.418       .  A
C1645      H1650   1.080       .  S
C1646      C1647   1.423       .  A
C1648      C1653   1.412       .  A
C1648      C1657   1.404       .  A
O1649      H1665   0.992       .  S
O1651      H1662   0.992   1_545  S
C1653      C1654   1.404       .  A
C1653      O1658   1.371       .  S
C1654      C1655   1.405       .  A
C1654      H1659   1.084       .  S
C1655      C1656   1.410       .  A
C1656      C1657   1.396       .  A
C1656      O1660   1.372       .  S
C1657      H1661   1.084       .  S
O1658      H1663   0.991       .  S
O1660      H1664   0.991       .  S
C1666      C1667   1.401       .  A
C1666      C1671   1.397       .  A
C1666      H1676   1.084       .  S
C1667      C1672   1.482       .  S
C1667      C1668   1.409       .  A
C1668      C1669   1.402       .  A
C1668      O1673   1.372       .  S
C1669      C1670   1.407       .  A
C1669      H1674   1.083       .  S
C1670      C1671   1.412       .  A
C1671      O1675   1.372       .  S
C1672      C1677   1.405       .  A
C1672      C1681   1.401       .  A
O1673      H1689   0.992       .  S
O1675      H1686   0.992       .  S
C1677      C1678   1.392       .  A
C1677      O1682   1.372       .  S
C1678      C1679   1.414       .  A
C1678      H1683   1.078       .  S
C1679      C1680   1.425       .  A
C1680      C1681   1.404       .  A
C1680      O1684   1.373       .  S
C1681      H1685   1.083       .  S
O1682      H1687   0.992       .  S
O1684      H1688   0.992       .  S
C1690      C1695   1.401   1_455  A
C1691      C1696   1.478       .  S
C1692      C1693   1.399       .  A
C1693      C1694   1.405       .  A
C1693      H1698   1.083       .  S
C1694      C1695   1.414       .  A
C1695      O1699   1.372       .  S
C1696      C1701   1.401       .  A
C1696      C1705   1.393       .  A
O1697      H1713   0.992       .  S
O1699      H1710   0.992       .  S
C1701      C1702   1.402       .  A
C1701      O1706   1.371       .  S
C1702      C1703   1.419       .  A
C1702      H1707   1.083       .  S
C1703      C1704   1.434       .  A
C1704      C1705   1.396       .  A
C1704      O1708   1.370       .  S
C1705      H1709   1.084       .  S
O1706      H1711   0.991       .  S
O1708      H1712   0.991       .  S
C1714      C2294   1.402       .  A
C1714      C1719   1.403   1_565  A
C1714      H1724   1.084       .  S
C1715      C1720   1.476       .  S
C1715      C2293   1.401       .  A
C1715      C1716   1.404       .  A
C1716      C2296   1.399       .  A
C1716      O1721   1.372       .  S
C1717      C2295   1.401   1_545  A
C1717      C1718   1.408       .  A
C1717      H1722   1.083       .  S
C1718      C1719   1.415       .  A
C1719      O1723   1.372       .  S
C1720      C1725   1.400       .  A
C1720      C1729   1.397       .  A
O1721      H1737   0.992       .  S
O1723      H1734   0.992       .  S
C1725      C1726   1.395       .  A
C1725      O1730   1.372       .  S
C1726      C1727   1.418       .  A
C1726      H1731   1.081       .  S
C1727      C1728   1.429       .  A
C1728      C1729   1.403       .  A
C1728      O1732   1.370       .  S
C1729      H1733   1.084       .  S
O1730      H1735   0.991       .  S
O1732      H1736   0.992       .  S
O1738      C1754   1.275       .  A
O1738     Zn1744   2.025       .  S
C1739      O1755   1.275       .  A
C1739      O1752   1.274       .  A
C1739      C2297   1.487       .  S
O1740      C1753   1.276       .  A
O1740     Cd1747   2.077       .  S
O1741      C1759   1.274       .  A
O1741     Cd1750   2.055       .  S
O1742      C1756   1.274       .  A
O1742     Cd1746   2.064       .  S
O1743      C1754   1.272       .  A
O1743     Cd1746   2.049       .  S
Zn1744     O1755   2.030       .  S
Zn1744     O1757   2.016       .  S
Zn1744     O1749   1.951       .  S
O1745      C1756   1.276       .  A
O1745     Cd1750   2.081       .  S
Cd1746     O1748   2.063       .  S
Cd1746     O1749   1.985       .  S
Cd1747     O1751   2.096       .  S
Cd1747     O1760   2.083       .  S
Cd1747     O1749   2.013       .  S
O1748      C1758   1.275       .  A
O1749     Cd1750   1.995       .  S
Cd1750     O1752   2.062       .  S
O1751      C1758   1.277       .  A
C1753      O1757   1.275       .  A
C1753      C2201   1.490       .  S
C1754      C2249   1.484       .  S
C1756      C2273   1.485       .  S
C1758      C2186   1.495       .  S
C1759      O1760   1.277       .  A
C1759      C2234   1.477       .  S
C1761      C2153   1.569       .  S
C1761      C2258   1.560       .  S
C1761      C2282   1.574       .  S
C1761      C2306   1.571       .  S
C1762      C2129   1.565       .  S
C1762      C2210   1.562       .  S
O1763      C1779   1.274       .  A
C1764      O1780   1.276       .  A
C1764      O1777   1.272       .  A
C1764      C2090   1.479       .  S
O1765      C1778   1.277       .  A
O1766      C1784   1.272       .  A
O1766     Cd1775   2.049       .  S
O1767      C1781   1.275       .  A
O1768      C1779   1.275       .  A
O1768     Cd1771   2.077       .  S
Zn1769     O1782   2.013       .  S
O1770      C1781   1.273       .  A
Cd1771     O1773   2.072       .  S
Cd1771     O1774   1.999   1_655  S
Cd1772     O1776   2.087   1_455  S
Cd1772     O1774   2.016       .  S
O1773      C1783   1.277       .  A
Cd1775     O1777   2.055       .  S
O1776      C1783   1.278       .  A
C1778      O1782   1.274       .  A
C1778      C2042   1.491       .  S
C1779      C2066   1.490       .  S
C1781      C2105   1.479       .  S
C1783      C2009   1.493       .  S
C1784      O1785   1.279       .  A
C1784      C1985   1.486       .  S
C1786      C1970   1.563       .  S
C1786      C1994   1.569       .  S
C1786      C2018   1.564       .  S
C1786      C2033   1.563       .  S
C1787      C2057   1.580       .  S
C1787      C2081   1.570       .  S
C1787      C2114   1.556       .  S
C1787      C2162   1.571       .  S
O1788      C1804   1.278       .  A
O1788     Zn1794   2.043       .  S
C1789      O1805   1.278       .  A
C1789      O1802   1.273       .  A
C1789      C1865   1.493       .  S
O1790      C1803   1.274       .  A
O1790     Cd1797   2.065       .  S
O1791      C1809   1.274       .  A
O1791     Cd1800   2.062       .  S
O1792      C1806   1.276       .  A
O1792     Cd1796   2.079       .  S
O1793      C1804   1.275       .  A
O1793     Cd1796   2.066       .  S
Zn1794     O1805   2.045       .  S
Zn1794     O1807   2.031       .  S
Zn1794     O1799   1.951       .  S
O1795      C1806   1.272       .  A
O1795     Cd1800   2.054       .  S
Cd1796     O1798   2.078       .  S
Cd1796     O1799   2.000       .  S
Cd1797     O1801   2.080       .  S
Cd1797     O1810   2.081       .  S
Cd1797     O1799   2.008       .  S
O1798      C1808   1.278       .  A
O1799     Cd1800   1.992       .  S
Cd1800     O1802   2.061       .  S
O1801      C1808   1.276       .  A
C1803      O1807   1.278       .  A
C1803      C1913   1.490       .  S
C1804      C1817   1.490       .  S
C1806      C1850   1.478       .  S
C1808      C1898   1.493       .  S
C1809      O1810   1.276       .  A
C1809      C1946   1.479       .  S
C1811      C1841   1.558       .  S
C1811      C2138   1.565       .  S
C1812      C1889   1.566       .  S
C1812      C1922   1.565       .  S
C1812      C1937   1.566       .  S
C1812      C1961   1.564       .  S
C1813      C1814   1.404       .  A
C1813      C1818   1.403       .  A
C1813      H1823   1.084       .  S
C1814      C1819   1.485       .  S
C1814      C1815   1.407       .  A
C1815      C1816   1.403       .  A
C1815      O1820   1.372       .  S
C1816      C1817   1.409       .  A
C1816      H1821   1.083       .  S
C1817      C1818   1.412       .  A
C1818      O1822   1.371       .  S
C1819      C1824   1.403       .  A
C1819      C1828   1.396       .  A
O1820      H1836   0.992       .  S
O1822      H1833   0.992       .  S
C1824      C1825   1.403       .  A
C1824      O1829   1.372       .  S
C1825      C1826   1.418       .  A
C1825      H1830   1.084       .  S
C1826      C1827   1.431   1_565  A
C1827      C1828   1.403   1_545  A
C1828      H1832   1.084       .  S
O1829      H1834   0.992       .  S
O1831      H1835   0.993       .  S
C1837      C1838   1.401       .  A
C1837      C1842   1.403       .  A
C1837      H1847   1.084       .  S
C1838      C1843   1.478       .  S
C1838      C1839   1.402       .  A
C1839      C1840   1.395       .  A
C1839      O1844   1.372       .  S
C1840      C1841   1.415       .  A
C1840      H1845   1.079       .  S
C1841      C1842   1.423       .  A
C1843      C1848   1.407       .  A
C1843      C1852   1.401       .  A
O1844      H1860   0.992       .  S
O1846      H1857   0.991       .  S
C1848      C1849   1.403       .  A
C1848      O1853   1.373       .  S
C1849      C1850   1.405       .  A
C1849      H1854   1.084       .  S
C1850      C1851   1.411       .  A
C1851      C1852   1.396       .  A
C1851      O1855   1.372       .  S
C1852      H1856   1.084       .  S
O1853      H1858   0.992       .  S
O1855      H1859   0.992       .  S
C1861      C1862   1.399       .  A
C1861      C1866   1.402       .  A
C1861      H1871   1.084       .  S
C1862      C1867   1.477       .  S
C1862      C1863   1.405       .  A
C1863      C1864   1.401       .  A
C1863      O1868   1.371       .  S
C1864      C1865   1.408       .  A
C1864      H1869   1.083       .  S
C1865      C1866   1.418       .  A
C1866      O1870   1.371       .  S
C1867      C1872   1.401       .  A
C1867      C1876   1.394       .  A
O1868      H1884   0.992       .  S
O1870      H1881   0.992       .  S
C1872      C1873   1.403       .  A
C1872      O1877   1.371       .  S
C1873      C1874   1.419       .  A
C1873      H1878   1.079       .  S
C1874      C1875   1.427       .  A
C1875      C1876   1.400       .  A
C1875      O1879   1.372   1_565  S
C1876      H1880   1.084       .  S
O1877      H1882   0.992       .  S
C1885      C1886   1.400       .  A
C1885      C1890   1.405       .  A
C1885      H1895   1.083       .  S
C1886      C1891   1.479       .  S
C1886      C1887   1.401       .  A
C1887      C1888   1.397       .  A
C1887      O1892   1.372       .  S
C1888      C1889   1.417       .  A
C1888      H1893   1.080       .  S
C1889      C1890   1.422       .  A
C1890      O1894   1.371       .  S
C1891      C1896   1.406       .  A
C1891      C1900   1.400       .  A
O1892      H1908   0.992       .  S
O1894      H1905   0.992       .  S
C1896      C1897   1.397       .  A
C1896      O1901   1.372       .  S
C1897      C1898   1.407       .  A
C1897      H1902   1.083       .  S
C1898      C1899   1.418       .  A
C1899      C1900   1.406       .  A
C1899      O1903   1.371       .  S
C1900      H1904   1.083       .  S
O1901      H1906   0.992       .  S
O1903      H1907   0.992       .  S
C1909      C1914   1.403       .  A
C1909      H1919   1.084       .  S
C1910      C1915   1.486       .  S
C1910      C1911   1.407       .  A
C1911      O1916   1.373       .  S
C1912      C1913   1.407       .  A
C1912      H1917   1.083       .  S
C1913      C1914   1.417       .  A
C1914      O1918   1.372       .  S
C1915      C1920   1.404       .  A
C1915      C1924   1.399       .  A
O1916      H1932   0.992       .  S
O1918      H1929   0.992       .  S
C1920      C1921   1.398       .  A
C1920      O1925   1.372       .  S
C1921      C1922   1.418       .  A
C1921      H1926   1.077       .  S
C1922      C1923   1.425       .  A
C1923      C1924   1.403       .  A
C1923      O1927   1.373       .  S
C1924      H1928   1.084       .  S
O1925      H1930   0.992       .  S
O1927      H1931   0.992       .  S
C1933      C1934   1.399       .  A
C1933      C1938   1.397       .  A
C1933      H1943   1.084       .  S
C1934      C1939   1.488       .  S
C1934      C1935   1.406       .  A
C1935      C1936   1.402       .  A
C1935      O1940   1.372       .  S
C1936      C1937   1.417       .  A
C1936      H1941   1.079       .  S
C1937      C1938   1.425       .  A
C1938      O1942   1.374       .  S
C1939      C1944   1.410       .  A
O1940      H1956   0.992       .  S
O1942      H1953   0.992       .  S
C1944      O1949   1.372       .  S
C1945      C1946   1.403       .  A
C1945      H1950   1.084       .  S
C1946      C1947   1.410       .  A
C1947      C1948   1.403       .  A
C1947      O1951   1.371       .  S
C1948      H1952   1.083       .  S
O1949      H1954   0.992       .  S
O1951      H1955   0.991       .  S
C1957      C1958   1.396       .  A
C1957      C1962   1.406       .  A
C1957      H1967   1.084       .  S
C1958      C1963   1.479       .  S
C1958      C1959   1.400       .  A
C1959      C1960   1.400       .  A
C1959      O1964   1.371       .  S
C1960      C1961   1.417       .  A
C1960      H1965   1.083       .  S
C1961      C1962   1.429       .  A
C1962      O1966   1.373       .  S
C1963      C1968   1.400       .  A
C1963      C1972   1.397       .  A
O1964      H1980   0.992       .  S
O1966      H1977   0.993       .  S
C1968      C1969   1.398       .  A
C1968      O1973   1.371       .  S
C1969      C1970   1.417       .  A
C1969      H1974   1.083       .  S
C1970      C1971   1.429       .  A
C1971      C1972   1.406       .  A
C1971      O1975   1.372       .  S
C1972      H1976   1.084       .  S
O1973      H1978   0.992       .  S
O1975      H1979   0.992       .  S
C1981      C1982   1.402       .  A
C1981      C1986   1.397       .  A
C1981      H1991   1.084       .  S
C1982      C1987   1.489       .  S
C1982      C1983   1.411       .  A
C1983      C1984   1.406       .  A
C1983      O1988   1.371       .  S
C1984      C1985   1.405       .  A
C1984      H1989   1.083       .  S
C1985      C1986   1.413       .  A
C1986      O1990   1.372       .  S
C1987      C1992   1.405       .  A
C1987      C1996   1.401       .  A
O1988      H2004   0.992       .  S
O1990      H2001   0.992       .  S
C1992      C1993   1.396       .  A
C1992      O1997   1.372       .  S
C1993      C1994   1.416       .  A
C1993      H1998   1.081       .  S
C1994      C1995   1.427       .  A
C1995      C1996   1.407       .  A
C1995      O1999   1.371       .  S
C1996      H2000   1.084       .  S
O1997      H2002   0.992       .  S
O1999      H2003   0.992       .  S
C2005      C2006   1.400       .  A
C2005      C2010   1.404       .  A
C2005      H2015   1.083       .  S
C2006      C2011   1.479       .  S
C2006      C2007   1.406       .  A
C2007      C2008   1.399       .  A
C2007      O2012   1.373       .  S
C2008      C2009   1.409       .  A
C2008      H2013   1.083       .  S
C2009      C2010   1.417       .  A
C2010      O2014   1.371       .  S
C2011      C2016   1.402       .  A
C2011      C2020   1.399       .  A
O2012      H2028   0.991       .  S
O2014      H2025   0.992       .  S
C2016      C2017   1.399       .  A
C2016      O2021   1.373       .  S
C2017      C2018   1.416       .  A
C2017      H2022   1.080       .  S
C2018      C2019   1.423       .  A
C2019      C2020   1.404       .  A
C2019      O2023   1.371       .  S
C2020      H2024   1.084       .  S
O2021      H2026   0.992       .  S
O2023      H2027   0.992       .  S
C2029      C2030   1.398       .  A
C2029      C2034   1.401       .  A
C2029      H2039   1.084       .  S
C2030      C2035   1.487       .  S
C2030      C2031   1.404       .  A
C2031      C2032   1.403       .  A
C2031      O2036   1.372       .  S
C2032      C2033   1.416       .  A
C2032      H2037   1.082       .  S
C2033      C2034   1.429       .  A
C2034      O2038   1.373       .  S
C2035      C2040   1.409       .  A
C2035      C2044   1.402       .  A
O2036      H2052   0.992       .  S
O2038      H2049   0.992       .  S
C2040      C2041   1.403       .  A
C2040      O2045   1.371       .  S
C2041      C2042   1.409       .  A
C2041      H2046   1.083       .  S
C2042      C2043   1.415       .  A
C2043      C2044   1.398       .  A
C2043      O2047   1.372       .  S
C2044      H2048   1.084       .  S
O2045      H2050   0.992       .  S
C2053      C2054   1.402       .  A
C2053      C2058   1.406       .  A
C2053      H2063   1.083       .  S
C2054      C2059   1.492       .  S
C2054      C2055   1.404       .  A
C2055      C2056   1.395       .  A
C2055      O2060   1.373       .  S
C2056      C2057   1.420       .  A
C2056      H2061   1.077       .  S
C2057      C2058   1.427       .  A
C2058      O2062   1.373       .  S
C2059      C2064   1.410       .  A
C2059      C2068   1.406       .  A
O2060      H2076   0.992       .  S
O2062      H2073   0.992       .  S
C2064      C2065   1.403       .  A
C2064      O2069   1.371       .  S
C2065      C2066   1.408       .  A
C2065      H2070   1.083       .  S
C2066      C2067   1.412       .  A
C2067      C2068   1.400       .  A
C2067      O2071   1.371       .  S
C2068      H2072   1.084       .  S
O2069      H2074   0.992       .  S
O2071      H2075   0.992       .  S
C2077      C2078   1.395       .  A
C2077      C2082   1.395       .  A
C2077      H2087   1.084       .  S
C2078      C2083   1.479       .  S
C2078      C2079   1.404       .  A
C2079      C2080   1.401       .  A
C2079      O2084   1.371       .  S
C2080      C2081   1.418       .  A
C2080      H2085   1.084       .  S
C2081      C2082   1.431       .  A
C2082      O2086   1.371       .  S
C2083      C2088   1.408       .  A
C2083      C2092   1.402       .  A
O2084      H2100   0.992       .  S
O2086      H2097   0.991       .  S
C2088      C2089   1.398       .  A
C2088      O2093   1.372       .  S
C2089      C2090   1.404       .  A
C2089      H2094   1.084       .  S
C2090      C2091   1.413       .  A
C2091      C2092   1.400       .  A
C2091      O2095   1.372       .  S
C2092      H2096   1.084       .  S
O2093      H2098   0.992       .  S
O2095      H2099   0.992       .  S
C2101      C2102   1.400       .  A
C2101      C2106   1.400       .  A
C2101      H2111   1.084       .  S
C2102      C2107   1.473       .  S
C2102      C2103   1.406       .  A
C2103      C2104   1.398       .  A
C2103      O2108   1.373       .  S
C2104      C2105   1.405       .  A
C2104      H2109   1.083       .  S
C2105      C2106   1.413       .  A
C2106      O2110   1.372       .  S
C2107      C2112   1.400       .  A
C2107      C2116   1.397       .  A
O2108      H2124   0.992       .  S
O2110      H2121   0.992   1_565  S
C2112      C2113   1.391       .  A
C2112      O2117   1.372       .  S
C2113      C2114   1.417       .  A
C2113      H2118   1.083       .  S
C2114      C2115   1.429       .  A
C2115      C2116   1.404       .  A
C2115      O2119   1.371       .  S
C2116      H2120   1.084       .  S
O2117      H2122   0.992       .  S
O2119      H2123   0.993       .  S
C2125      C2130   1.403       .  A
C2125      H2135   1.084       .  S
C2126      C2131   1.477   1_556  S
C2126      C2127   1.401       .  A
C2127      C2128   1.400       .  A
C2127      O2132   1.371       .  S
C2128      C2129   1.417       .  A
C2128      H2133   1.083       .  S
C2130      O2134   1.370       .  S
C2131      C2140   1.395       .  A
O2132      H2148   0.992       .  S
O2134      H2145   0.992   1_655  S
C2136      C2137   1.401       .  A
C2136      O2141   1.372       .  S
C2137      H2142   1.079       .  S
C2138      C2139   1.426       .  A
C2139      C2140   1.400       .  A
C2139      O2143   1.372       .  S
C2140      H2144   1.084       .  S
O2141      H2146   0.992   1_565  S
O2143      H2147   0.992       .  S
C2149      C2150   1.405       .  A
C2149      C2154   1.402       .  A
C2149      H2159   1.080       .  S
C2150      C2155   1.508       .  S
C2150      C2151   1.414       .  A
C2151      C2152   1.398       .  A
C2151      O2156   1.372       .  S
C2152      C2153   1.414       .  A
C2152      H2157   1.073       .  S
C2153      C2154   1.425       .  A
C2154      O2158   1.373       .  S
C2155      C2160   1.413       .  A
C2155      C2164   1.403       .  A
O2156      H2172   0.992       .  S
O2158      H2169   0.992       .  S
C2160      C2161   1.404       .  A
C2160      O2165   1.373       .  S
C2161      C2162   1.415       .  A
C2161      H2166   1.073       .  S
C2162      C2163   1.426       .  A
C2163      C2164   1.397       .  A
C2163      O2167   1.370       .  S
C2164      H2168   1.081       .  S
O2165      H2170   0.992       .  S
O2167      H2171   0.992       .  S
C2173      C2174   1.396       .  A
C2173      C2178   1.402       .  A
C2173      H2183   1.084       .  S
C2174      C2179   1.486       .  S
C2174      C2175   1.402       .  A
C2175      C2176   1.404       .  A
C2175      O2180   1.371       .  S
C2176      C2177   1.420       .  A
C2176      H2181   1.083       .  S
C2177      C2178   1.431       .  A
C2179      C2184   1.406       .  A
C2179      C2188   1.404       .  A
O2180      H2196   0.992       .  S
O2182      H2193   0.993       .  S
C2184      C2185   1.398       .  A
C2184      O2189   1.372       .  S
C2185      C2186   1.408       .  A
C2185      H2190   1.083       .  S
C2186      C2187   1.416       .  A
C2187      C2188   1.408       .  A
C2187      O2191   1.371       .  S
C2188      H2192   1.083       .  S
O2189      H2194   0.992       .  S
O2191      H2195   0.992       .  S
C2197      C2198   1.401       .  A
C2197      C2202   1.398       .  A
C2197      H2207   1.084       .  S
C2198      C2203   1.480       .  S
C2198      C2199   1.405       .  A
C2199      C2200   1.402       .  A
C2199      O2204   1.371       .  S
C2200      C2201   1.410       .  A
C2200      H2205   1.083       .  S
C2201      C2202   1.415       .  A
C2202      O2206   1.372       .  S
C2203      C2208   1.402       .  A
C2203      C2212   1.399       .  A
O2204      H2220   0.992       .  S
O2206      H2217   0.992       .  S
C2208      C2209   1.397       .  A
C2208      O2213   1.372       .  S
C2209      C2210   1.417       .  A
C2209      H2214   1.080       .  S
C2210      C2211   1.421       .  A
C2211      C2212   1.403       .  A
C2212      H2216   1.084       .  S
O2213      H2218   0.992       .  S
O2215      H2219   0.992       .  S
C2221      C2222   1.398       .  A
C2221      C2226   1.395       .  A
C2221      H2231   1.084       .  S
C2222      C2227   1.483       .  S
C2222      C2223   1.404       .  A
C2223      C2224   1.404       .  A
C2223      O2228   1.372       .  S
C2224      C2225   1.417       .  A
C2224      H2229   1.080       .  S
C2225      C2226   1.424       .  A
C2227      C2232   1.411       .  A
C2227      C2236   1.403       .  A
O2228      H2244   0.992       .  S
O2230      H2241   0.992       .  S
C2232      C2233   1.402       .  A
C2232      O2237   1.371       .  S
C2233      C2234   1.404       .  A
C2233      H2238   1.084       .  S
C2234      C2235   1.410       .  A
C2235      C2236   1.395       .  A
C2235      O2239   1.372       .  S
C2236      H2240   1.084       .  S
O2237      H2242   0.992       .  S
O2239      H2243   0.992       .  S
C2245      C2246   1.401       .  A
C2245      C2250   1.395       .  A
C2245      H2255   1.084       .  S
C2246      C2251   1.481       .  S
C2246      C2247   1.409       .  A
C2247      C2248   1.401       .  A
C2247      O2252   1.372       .  S
C2248      C2249   1.407       .  A
C2248      H2253   1.083       .  S
C2249      C2250   1.414       .  A
C2250      O2254   1.372       .  S
C2251      C2256   1.405       .  A
C2251      C2260   1.400       .  A
O2252      H2268   0.992       .  S
O2254      H2265   0.992       .  S
C2256      C2257   1.392       .  A
C2256      O2261   1.372       .  S
C2257      C2258   1.414       .  A
C2257      H2262   1.077       .  S
C2258      C2259   1.426       .  A
C2259      C2260   1.403       .  A
C2259      O2263   1.373       .  S
C2260      H2264   1.083       .  S
O2261      H2266   0.991       .  S
O2263      H2267   0.992       .  S
C2269      C2274   1.399   1_455  A
C2270      C2275   1.480       .  S
C2271      C2272   1.401       .  A
C2272      C2273   1.406       .  A
C2272      H2277   1.083       .  S
C2273      C2274   1.413       .  A
C2274      O2278   1.372       .  S
C2275      C2280   1.403       .  A
C2275      C2284   1.393       .  A
O2276      H2292   0.992       .  S
O2278      H2289   0.992       .  S
C2280      C2281   1.400       .  A
C2280      O2285   1.371       .  S
C2281      C2282   1.418       .  A
C2281      H2286   1.084       .  S
C2282      C2283   1.436       .  A
C2283      C2284   1.396       .  A
C2283      O2287   1.369       .  S
C2284      H2288   1.084       .  S
O2285      H2290   0.992       .  S
O2287      H2291   0.992       .  S
C2293      C2298   1.402       .  A
C2293      H2303   1.084       .  S
C2294      C2299   1.484       .  S
C2294      C2295   1.407       .  A
C2295      O2300   1.372       .  S
C2296      C2297   1.408       .  A
C2296      H2301   1.083       .  S
C2297      C2298   1.414       .  A
C2298      O2302   1.371       .  S
C2299      C2304   1.401       .  A
C2299      C2308   1.399       .  A
O2300      H2316   0.992       .  S
O2302      H2313   0.992       .  S
C2304      C2305   1.398       .  A
C2304      O2309   1.372       .  S
C2305      C2306   1.420       .  A
C2305      H2310   1.082       .  S
C2306      C2307   1.429       .  A
C2307      C2308   1.404       .  A
C2307      O2311   1.369       .  S
C2308      H2312   1.084       .  S
O2309      H2314   0.991       .  S
O2311      H2315   0.992       .  S
