geometry optimzed in LAMMPS
_audit_creation_date              2020-11-30 
_audit_creation_method            'lammps2cif' 
_symmetry_space_group_name_H-M    'P1' 
_symmetry_Int_Tables_number       1 
_symmetry_cell_setting            triclinic 
loop_ 
_symmetry_equiv_pos_as_xyz 
  x,y,z 
_cell_length_a                    48.07897605 
_cell_length_b                    48.03018726900669 
_cell_length_c                    71.37303110831398 
_cell_angle_alpha                 89.96849214996067 
_cell_angle_beta                  90.08910114361164 
_cell_angle_gamma                 119.96370178068373 
loop_ 
_atom_site_label 
_atom_site_type_symbol 
_atom_site_fract_x 
_atom_site_fract_y 
_atom_site_fract_z 
_atom_site_charge 
C1          C  0.57743186  0.47516601  0.08333654     0.03100
C2          C  0.55542608  0.44613396  0.09190281    -0.13000
C3          C  0.52753802  0.42398933  0.08242548     0.00600
C4          C  0.52150635  0.43107607  0.06432939    -0.11600
C5          C  0.54344572  0.46001092  0.05559020     0.03100
C6          C  0.57128903  0.48210793  0.06521645    -0.11000
H7          H  0.56044536  0.44039558  0.10574464     0.08700
H8          H  0.49988720  0.41396836  0.05699785     0.06200
H9          H  0.58874527  0.50406281  0.05832615     0.06100
C10         C  0.50343035  0.54377574  0.90131424     0.03100
C11         C  0.47368119  0.52314451  0.89294396    -0.13000
C12         C  0.45221047  0.49361072  0.90123521     0.00600
C13         C  0.46077271  0.48478808  0.91809810    -0.11600
C14         C  0.49050349  0.50519670  0.92659776     0.03100
C15         C  0.51196643  0.53440539  0.91796564    -0.11000
H16         H  0.46692888  0.53046360  0.88015978     0.08700
H17         H  0.44420323  0.46214630  0.92470293     0.06200
H18         H  0.53462808  0.55056548  0.92470834     0.06100
O19         O  0.50114869  0.43719299  0.49605824    -0.73000
O20         O  0.53898983  0.52386645  0.47231155    -0.74000
O21         O  0.56232516  0.49382454  0.49660907    -0.62600
O22         O  0.47798553  0.46766796  0.47187650    -0.71000
O23         O  0.46298678  0.48494530  0.49651765    -0.70500
O24         O  0.54763040  0.51183167  0.52107379    -0.61800
O25         O  0.52405004  0.54162117  0.49680136    -0.74300
O26         O  0.48707652  0.45501478  0.52094018    -0.73100
Cu27       Cu  0.52058841  0.47997995  0.48337047     1.04600
Cu28       Cu  0.50485998  0.49894118  0.50968859     1.04300
C29         C  0.48839646  0.43243423  0.51227597     0.93200
C30         C  0.53768809  0.54655175  0.48083098     0.92400
C31         C  0.56853242  0.50739031  0.51266859     0.84500
C32         C  0.45705444  0.47210009  0.48024921     0.90800
O33         O  0.21363992  0.84682138  0.85220933    -0.73000
O34         O  0.12786911  0.81494526  0.82848808    -0.74000
O35         O  0.15479465  0.78832530  0.85311693    -0.62600
O36         O  0.18684290  0.87314507  0.82747604    -0.71000
O37         O  0.20198295  0.85535001  0.80316570    -0.70500
O38         O  0.17023880  0.77082414  0.82880331    -0.61800
O39         O  0.14270538  0.79672886  0.80415443    -0.74300
O40         O  0.22940057  0.82928920  0.82809132    -0.73100
Cu41       Cu  0.17024718  0.83140134  0.84114543     1.04600
Cu42       Cu  0.18662668  0.81243653  0.81518992     1.04300
C43         C  0.23511087  0.84292050  0.84414876     0.93200
C44         C  0.12171164  0.80109493  0.81254281     0.92400
C45         C  0.15760675  0.76610939  0.84506394     0.84500
C46         C  0.19947536  0.87773512  0.81120814     0.90800
C47         C  0.57609108  0.06373947  0.08634581     0.03100
C48         C  0.55588860  0.07245806  0.09559630    -0.13000
C49         C  0.52622331  0.06494518  0.08772736     0.00600
C50         C  0.51683770  0.04869638  0.07054807    -0.11600
C51         C  0.53702003  0.04008786  0.06116972     0.03100
C52         C  0.56655400  0.04749819  0.06919631    -0.11000
H53         H  0.56322326  0.08502093  0.10888613     0.08700
H54         H  0.49422405  0.04354560  0.06425048     0.06200
H55         H  0.58233871  0.04102750  0.06196941     0.06100
C56         C  0.44694572  0.90981327  0.90807213     0.03100
C57         C  0.45394918  0.92544986  0.92550024    -0.13000
C58         C  0.48315120  0.93444007  0.93456516     0.00600
C59         C  0.50531509  0.92746122  0.92619891    -0.11600
C60         C  0.49848669  0.91154157  0.90891293     0.03100
C61         C  0.46959229  0.90342803  0.89975953    -0.11000
H62         H  0.43641480  0.93002739  0.93220479     0.08700
H63         H  0.52796982  0.93458266  0.93313467     0.06200
H64         H  0.46458395  0.89175518  0.88620345     0.06100
C65         C  0.94004657  0.42918891  0.08375087     0.03100
C66         C  0.95964566  0.44056939  0.06783119    -0.13000
C67         C  0.97037697  0.47185192  0.06119235     0.00600
C68         C  0.96120557  0.49162772  0.07062405    -0.11600
C69         C  0.94178557  0.48046320  0.08662355     0.03100
C70         C  0.93158076  0.44939864  0.09322367    -0.11000
H71         H  0.96577222  0.42475745  0.06032978     0.08700
H72         H  0.96937935  0.51579989  0.06560452     0.06200
H73         H  0.91668428  0.44079535  0.10564423     0.06100
C74         C  0.10088499  0.55777801  0.90926696     0.03100
C75         C  0.10597789  0.53496483  0.90002451    -0.13000
C76         C  0.09895823  0.50608512  0.90889657     0.00600
C77         C  0.08673565  0.50025155  0.92725459    -0.11600
C78         C  0.08151739  0.52299729  0.93658107     0.03100
C79         C  0.08899144  0.55180871  0.92759024    -0.11000
H80         H  0.11548662  0.53974414  0.88589644     0.08700
H81         H  0.08162700  0.47827321  0.93437737     0.06200
H82         H  0.08463801  0.56923350  0.93467647     0.06100
O83         O  0.84436294  0.10685704  0.15889134    -0.73000
O84         O  0.87136364  0.19048029  0.13330190    -0.74000
O85         O  0.90121669  0.16722552  0.15841921    -0.62600
O86         O  0.81420973  0.12999834  0.13411615    -0.71000
O87         O  0.79727165  0.14551012  0.15870039    -0.70500
O88         O  0.88381736  0.18378710  0.18224632    -0.61800
O89         O  0.85343892  0.20631674  0.15718829    -0.74300
O90         O  0.82781739  0.12297368  0.18334364    -0.73100
Cu91       Cu  0.85842556  0.14814232  0.14531541     1.04600
Cu92       Cu  0.84000906  0.16523836  0.17117953     1.04300
C93         C  0.83220093  0.10170414  0.17527877     0.93200
C94         C  0.86636991  0.21157999  0.14096655     0.92400
C95         C  0.90606761  0.18086867  0.17443512     0.84500
C96         C  0.79182352  0.13167502  0.14278145     0.90800
C97         C  0.24575604  0.80627883  0.41850809     0.03100
C98         C  0.23852713  0.81562066  0.40140438    -0.13000
C99         C  0.20919256  0.79581468  0.39239967     0.00600
C100        C  0.18714260  0.76633662  0.40053680    -0.11600
C101        C  0.19411833  0.75681808  0.41766885     0.03100
C102        C  0.22333731  0.77702709  0.42665991    -0.11000
H103        H  0.25588722  0.83814585  0.39499272     0.08700
H104        H  0.16451072  0.75085551  0.39356472     0.06200
H105        H  0.22843651  0.77019279  0.44015518     0.06100
C106        C  0.16459167  0.88530185  0.23921867     0.03100
C107        C  0.17471818  0.88031034  0.25673275    -0.13000
C108        C  0.15476213  0.85266561  0.26721615     0.00600
C109        C  0.12471808  0.82988752  0.25999409    -0.11600
C110        C  0.11437188  0.83466217  0.24253021     0.03100
C111        C  0.13445044  0.86244033  0.23223452    -0.11000
H112        H  0.19770113  0.89825808  0.26238922     0.08700
H113        H  0.10953984  0.80825300  0.26791193     0.06200
H114        H  0.12649793  0.86644520  0.21879490     0.06100
C115        C  0.24854683  0.41259478  0.41548839     0.03100
C116        C  0.24250429  0.39815408  0.39776681    -0.13000
C117        C  0.21367537  0.38953955  0.38833646     0.00600
C118        C  0.19130762  0.39649331  0.39657903    -0.11600
C119        C  0.19740802  0.41154782  0.41416229     0.03100
C120        C  0.22589824  0.41906340  0.42365174    -0.11000
H121        H  0.26022911  0.39353350  0.39136138     0.08700
H122        H  0.16915405  0.39023521  0.38928447     0.06200
H123        H  0.23057606  0.43010593  0.43739326     0.06100
C124        C  0.11875444  0.25157059  0.23783375     0.03100
C125        C  0.14049042  0.24474184  0.22875385    -0.13000
C126        C  0.17001916  0.25286337  0.23699114     0.00600
C127        C  0.17831182  0.26885330  0.25428585    -0.11600
C128        C  0.15721356  0.27664202  0.26341247     0.03100
C129        C  0.12753824  0.26814679  0.25497854    -0.11000
H130        H  0.13426368  0.23266430  0.21529902     0.08700
H131        H  0.20116708  0.27510033  0.26066864     0.06200
H132        H  0.11115776  0.27421631  0.26180467     0.06100
O133        O  0.35322327  0.13011484  0.13415076    -0.73000
O134        O  0.29800119  0.16256586  0.15638555    -0.74000
O135        O  0.35481794  0.19000097  0.13431825    -0.62600
O136        O  0.29644089  0.10253922  0.15619429    -0.71000
O137        O  0.32580897  0.11726651  0.18202943    -0.70500
O138        O  0.38471203  0.20381569  0.15995070    -0.61800
O139        O  0.32836328  0.17738752  0.18191331    -0.74300
O140        O  0.38221010  0.14386995  0.16016219    -0.73100
Cu141      Cu  0.32455348  0.14580585  0.14434369     1.04600
Cu142      Cu  0.35623662  0.16103059  0.17188738     1.04300
C143        C  0.37653493  0.13184070  0.14370550     0.93200
C144        C  0.30459247  0.17525032  0.17269797     0.92400
C145        C  0.37913498  0.21078761  0.14362466     0.84500
C146        C  0.30186970  0.09603161  0.17269678     0.90800
O147        O  0.00038015  0.45370478  0.51760138    -0.73000
O148        O  0.05109617  0.54048641  0.49382668    -0.74000
O149        O  0.99865695  0.51152042  0.51881198    -0.62600
O150        O  0.05315091  0.48233660  0.49252101    -0.71000
O151        O  0.01926499  0.46523872  0.46858717    -0.70500
O152        O  0.96536888  0.49563814  0.49460919    -0.61800
O153        O  0.01808264  0.52356250  0.46938610    -0.74300
O154        O  0.96658639  0.43732218  0.49368303    -0.73100
Cu155      Cu  0.02702064  0.49758493  0.50650626     1.04600
Cu156      Cu  0.99116102  0.47987441  0.48072610     1.04300
C157        C  0.97519535  0.43176576  0.50955178     0.93200
C158        C  0.04258972  0.54571369  0.47784685     0.92400
C159        C  0.97336178  0.50825823  0.51090950     0.84500
C160        C  0.04490607  0.46913228  0.47637872     0.90800
C161        C  0.77881223  0.57269895  0.57725532     0.03100
C162        C  0.80111684  0.56680420  0.56806551    -0.13000
C163        C  0.82880379  0.57145628  0.57728427     0.00600
C164        C  0.83448443  0.58238617  0.59582885    -0.11600
C165        C  0.81286240  0.58917266  0.60515722     0.03100
C166        C  0.78504701  0.58431117  0.59574135    -0.11000
H167        H  0.79657139  0.55781232  0.55380788     0.08700
H168        H  0.85574847  0.58550624  0.60299786     0.06200
H169        H  0.76806041  0.58915933  0.60287387     0.06100
C170        C  0.90494768  0.72684300  0.75486070     0.03100
C171        C  0.88436411  0.73610234  0.76310537    -0.13000
C172        C  0.85386344  0.72571617  0.75553926     0.00600
C173        C  0.84390804  0.70614566  0.73957938    -0.11600
C174        C  0.86425646  0.69668118  0.73118054     0.03100
C175        C  0.89474588  0.70711122  0.73892673    -0.11000
H176        H  0.89212439  0.75155332  0.77533895     0.08700
H177        H  0.82042446  0.69852453  0.73362911     0.06200
H178        H  0.91074553  0.70020163  0.73242257     0.06100
O179        O  0.71973995  0.87292700  0.83126314    -0.73000
O180        O  0.66794006  0.78651502  0.85536835    -0.74000
O181        O  0.72177866  0.81526357  0.83139730    -0.62600
O182        O  0.66574181  0.84434942  0.85545763    -0.71000
O183        O  0.63332149  0.82726898  0.83084115    -0.70500
O184        O  0.68960869  0.79837016  0.80663580    -0.61800
O185        O  0.63582444  0.76980441  0.83066480    -0.74300
O186        O  0.68696835  0.85596814  0.80672440    -0.73100
Cu187      Cu  0.69491185  0.83039041  0.84424169     1.04600
Cu188      Cu  0.66030301  0.81227773  0.81786351     1.04300
C189        C  0.71156493  0.87803437  0.81514278     0.93200
C190        C  0.64365971  0.76430136  0.84677858     0.92400
C191        C  0.71469819  0.80231392  0.81519124     0.84500
C192        C  0.64046079  0.84019828  0.84706103     0.90800
C193        C  0.83308330  0.21819991  0.57213117     0.03100
C194        C  0.80409859  0.19540062  0.56385038    -0.13000
C195        C  0.78399402  0.16612932  0.57282477     0.00600
C196        C  0.79330426  0.15948105  0.59008994    -0.11600
C197        C  0.82231347  0.18199082  0.59844277     0.03100
C198        C  0.84231585  0.21117908  0.58935976    -0.11000
H199        H  0.79703127  0.20055854  0.55044618     0.08700
H200        H  0.77811662  0.13671478  0.59699939     0.06200
H201        H  0.86459013  0.22872736  0.59593855     0.06100
C202        C  0.90874556  0.13543820  0.75078638     0.03100
C203        C  0.90243145  0.14389984  0.73316625    -0.13000
C204        C  0.87377347  0.12338007  0.72373134     0.00600
C205        C  0.85095012  0.09465213  0.73227983    -0.11600
C206        C  0.85680335  0.08631446  0.75010740     0.03100
C207        C  0.88601289  0.10658503  0.75911985    -0.11000
H208        H  0.92007003  0.16619709  0.72665625     0.08700
H209        H  0.82841379  0.07915722  0.72522405     0.06200
H210        H  0.89101129  0.10004608  0.77273288     0.06100
O211        O  0.85342052  0.61068822  0.16735467    -0.73000
O212        O  0.81842875  0.66426653  0.18822187    -0.74000
O213        O  0.79399338  0.60926873  0.16469363    -0.62600
O214        O  0.87774234  0.66558493  0.19074957    -0.71000
O215        O  0.89473052  0.69693617  0.16572100    -0.70500
O216        O  0.81124132  0.64050225  0.13960078    -0.61800
O217        O  0.83519225  0.69537231  0.16300260    -0.74300
O218        O  0.87065979  0.64212498  0.14236540    -0.73100
Cu219      Cu  0.83524953  0.63635056  0.17862284     1.04600
Cu220      Cu  0.85356489  0.66983978  0.15181491     1.04300
C221        C  0.86747783  0.61778776  0.15147143     0.93200
C222        C  0.82138216  0.68836530  0.17896436     0.92400
C223        C  0.78939865  0.61567449  0.14797572     0.84500
C224        C  0.89959238  0.69036598  0.18233259     0.90800
C225        C  0.60390819  0.75599885  0.41646221     0.03100
C226        C  0.61619181  0.76209976  0.39818715    -0.13000
C227        C  0.62168586  0.78995491  0.38873326     0.00600
C228        C  0.61449175  0.81165761  0.39753284    -0.11600
C229        C  0.60218939  0.80578957  0.41578245     0.03100
C230        C  0.59693647  0.77796676  0.42516775    -0.11000
H231        H  0.62094450  0.74493325  0.39113560     0.08700
H232        H  0.61903356  0.83340384  0.39032496     0.06200
H233        H  0.58710552  0.77326983  0.43921963     0.06100
C234        C  0.75640305  0.88758836  0.23810793     0.03100
C235        C  0.73950521  0.87893460  0.25509571    -0.13000
C236        C  0.73023924  0.84903222  0.26329083     0.00600
C237        C  0.73728209  0.82742107  0.25426128    -0.11600
C238        C  0.75370678  0.83556259  0.23714806     0.03100
C239        C  0.76322455  0.86568221  0.22916607    -0.11000
H240        H  0.73350215  0.89537820  0.26194276     0.08700
H241        H  0.73078552  0.80464001  0.26085972     0.06200
H242        H  0.77635333  0.87224984  0.21606483     0.06100
O243        O  0.49283661  0.99960340  0.51815603    -0.73000
O244        O  0.52465434  0.94605424  0.49355385    -0.74000
O245        O  0.55184768  0.00017385  0.51754379    -0.62600
O246        O  0.46577186  0.94556335  0.49434247    -0.71000
O247        O  0.48101983  0.97750632  0.46958614    -0.70500
O248        O  0.56717355  0.03281825  0.49301500    -0.61800
O249        O  0.54030543  0.97852206  0.46903463    -0.74300
O250        O  0.50790832  0.03179834  0.49350626    -0.73100
Cu251      Cu  0.50830011  0.97175811  0.50674966     1.04600
Cu252      Cu  0.52464827  0.00628228  0.48041293     1.04300
C253        C  0.49531820  0.02425659  0.50980495     0.93200
C254        C  0.53730136  0.95356509  0.47727153     0.92400
C255        C  0.57306767  0.02528478  0.50910281     0.84500
C256        C  0.45960264  0.95282007  0.47825204     0.90800
C257        C  0.43046993  0.22175610  0.57286568     0.03100
C258        C  0.43874264  0.20080861  0.56413890    -0.13000
C259        C  0.43070735  0.17121381  0.57243009     0.00600
C260        C  0.41404603  0.16267094  0.58953716    -0.11600
C261        C  0.40598292  0.18372990  0.59842900     0.03100
C262        C  0.41421747  0.21321072  0.59001138    -0.11000
H263        H  0.45082913  0.20729360  0.55070257     0.08700
H264        H  0.40792858  0.13997399  0.59611378     0.06200
H265        H  0.40787891  0.22948099  0.59677891     0.06100
C266        C  0.26691573  0.08967202  0.74805581     0.03100
C267        C  0.28503183  0.09920115  0.73154532    -0.13000
C268        C  0.29468650  0.12945511  0.72363301     0.00600
C269        C  0.28630122  0.15030342  0.73259888    -0.11600
C270        C  0.26832076  0.14096134  0.74923288     0.03100
C271        C  0.25851068  0.11051346  0.75678325    -0.11000
H272        H  0.29085581  0.08268515  0.72462041     0.08700
H273        H  0.29351958  0.17364905  0.72656379     0.06200
H274        H  0.24471673  0.10319429  0.76965234     0.06100
O275        O  0.15392969  0.33128717  0.85229228    -0.73000
O276        O  0.18535533  0.27597280  0.82866255    -0.74000
O277        O  0.21276664  0.33081803  0.85213685    -0.62600
O278        O  0.12635469  0.27631130  0.82903576    -0.71000
O279        O  0.14170821  0.30761811  0.80398951    -0.70500
O280        O  0.22839964  0.36255367  0.82718882    -0.61800
O281        O  0.20048444  0.30747710  0.80361047    -0.74300
O282        O  0.16940897  0.36259650  0.82722499    -0.73100
Cu283      Cu  0.16908985  0.30251110  0.84140510     1.04600
Cu284      Cu  0.18557929  0.33615399  0.81463818     1.04300
C285        C  0.15643344  0.35558907  0.84341948     0.93200
C286        C  0.19765267  0.28290836  0.81226488     0.92400
C287        C  0.23431211  0.35524825  0.84336154     0.84500
C288        C  0.12010123  0.28340626  0.81291128     0.90800
C289        C  0.25907062  0.16253885  0.75871547    -0.19900
C290        C  0.28233839  0.19344893  0.76493896     0.36300
C291        C  0.27237265  0.21279532  0.77423578    -0.25900
C292        C  0.23971831  0.20169072  0.77740568     0.02800
C293        C  0.21651344  0.17075201  0.77135373     0.27600
C294        C  0.22642701  0.15143420  0.76207353    -0.25000
N295        N  0.31590031  0.20484845  0.76198206    -0.82400
H296        H  0.29002967  0.23663425  0.77896697     0.13400
C297        C  0.22984980  0.22299840  0.78654984     0.02700
N298        N  0.18300075  0.15922695  0.77461446    -0.81000
H299        H  0.20863944  0.12763908  0.75734310     0.18200
C300        C  0.21669313  0.23764144  0.77550336    -0.25800
C301        C  0.20593221  0.25721388  0.78359052     0.36200
C302        C  0.20857102  0.26231634  0.80318305    -0.19800
C303        C  0.22170832  0.24748146  0.81423341    -0.25100
C304        C  0.23247657  0.22789649  0.80607328     0.27600
H305        H  0.21453810  0.23346062  0.76051335     0.13400
N306        N  0.19170639  0.27130896  0.77202342    -0.82300
H307        H  0.22380696  0.25139942  0.82924406     0.18200
N308        N  0.24598217  0.21291043  0.81747295    -0.80900
H309        H  0.19186415  0.26539748  0.75794122     0.33800
H310        H  0.16759369  0.26105523  0.77590098     0.38300
H311        H  0.24644647  0.21914330  0.83155082     0.33800
H312        H  0.23069787  0.18804756  0.81660451     0.30500
H313        H  0.16900311  0.13608251  0.76914908     0.33800
H314        H  0.17935100  0.15734882  0.78910618     0.30500
H315        H  0.32192362  0.19005318  0.76965436     0.38400
H316        H  0.32982606  0.22807027  0.76735652     0.33900
C317        C  0.38949495  0.17543595  0.61673997    -0.19900
C318        C  0.35863257  0.14836206  0.61885141     0.36300
C319        C  0.34366157  0.14173260  0.63648238    -0.25900
C320        C  0.35903044  0.16168436  0.65190861     0.02800
C321        C  0.38980882  0.18880049  0.64977063     0.27600
C322        C  0.40474668  0.19544730  0.63216164    -0.25000
N323        N  0.34256585  0.12801883  0.60305697    -0.82400
H324        H  0.31995526  0.12097058  0.63825085     0.13400
C325        C  0.34264441  0.15392138  0.67028003     0.02700
N326        N  0.40561359  0.20949010  0.66548169    -0.81000
H327        H  0.42842210  0.21627571  0.63042206     0.18200
C328        C  0.35487776  0.14384597  0.68498735    -0.25800
C329        C  0.33997259  0.13621763  0.70263763     0.36200
C330        C  0.31215985  0.13859998  0.70553228    -0.19800
C331        C  0.30019535  0.14903940  0.69080335    -0.25100
C332        C  0.31520477  0.15676797  0.67319236     0.27600
H333        H  0.37611728  0.14191724  0.68263518     0.13400
N334        N  0.35308701  0.12633592  0.71764931    -0.82300
H335        H  0.27878967  0.15073120  0.69299220     0.18200
N336        N  0.30276845  0.16749646  0.65824311    -0.80900
H337        H  0.37344735  0.12568029  0.71316734     0.33800
H338        H  0.36069745  0.14383627  0.72813419     0.38300
H339        H  0.28233806  0.16809464  0.66263837     0.33800
H340        H  0.32011892  0.19117680  0.65506907     0.30500
H341        H  0.42821931  0.22826506  0.66158942     0.33800
H342        H  0.39202252  0.22003255  0.66941203     0.30500
H343        H  0.33838398  0.14171564  0.59325955     0.38400
H344        H  0.32006627  0.10910902  0.60699119     0.33900
C345        C  0.48366176  0.04434607  0.51892644    -0.19900
C346        C  0.47317519  0.03966698  0.53782645     0.36300
C347        C  0.46247923  0.05950255  0.54561114    -0.25900
C348        C  0.46271206  0.08426756  0.53516732     0.02800
C349        C  0.47287912  0.08896552  0.51639187     0.27600
C350        C  0.48318001  0.06894693  0.50844156    -0.25000
N351        N  0.47393696  0.01535913  0.54922460    -0.82400
H352        H  0.45484477  0.05633613  0.56011586     0.13400
C353        C  0.45389871  0.10623395  0.54444652     0.02700
N354        N  0.47278037  0.11414540  0.50553886    -0.81000
H355        H  0.49093930  0.07272003  0.49396389     0.18200
C356        C  0.47783198  0.13813414  0.54761929    -0.25800
C357        C  0.47079818  0.15952263  0.55693162     0.36200
C358        C  0.43919147  0.14899306  0.56301953    -0.19800
C359        C  0.41525325  0.11693206  0.55992603    -0.25100
C360        C  0.42231182  0.09541213  0.55063052     0.27600
H361        H  0.50223058  0.14631128  0.54309983     0.13400
N362        N  0.49598914  0.19166173  0.56065115    -0.82300
H363        H  0.39092161  0.10884536  0.56452500     0.18200
N364        N  0.39762220  0.06273417  0.54733472    -0.80900
H365        H  0.51368586  0.19041686  0.56853246     0.33800
H366        H  0.50613455  0.20259045  0.54785050     0.38300
H367        H  0.37572150  0.05859245  0.55281799     0.33800
H368        H  0.39448528  0.05951054  0.53284091     0.30500
H369        H  0.48116625  0.11457664  0.49197266     0.33800
H370        H  0.44892653  0.10871441  0.50421027     0.30500
H371        H  0.49805315  0.02233704  0.55145908     0.38400
H372        H  0.46415964  0.01435193  0.56245404     0.33900
C373        C  0.59396811  0.82830900  0.42488464    -0.19900
C374        C  0.60644279  0.84161785  0.44264118     0.36300
C375        C  0.59704453  0.86201171  0.45105243    -0.25900
C376        C  0.57548591  0.86926185  0.44204727     0.02800
C377        C  0.56311623  0.85603156  0.42425826     0.27600
C378        C  0.57274261  0.83588851  0.41577628    -0.25000
N379        N  0.62882882  0.83463908  0.45192226    -0.82400
H380        H  0.60676238  0.87256485  0.46461196     0.13400
C381        C  0.56626673  0.89099671  0.45132642     0.02700
N382        N  0.54048441  0.86273734  0.41504438    -0.81000
H383        H  0.56307516  0.82540432  0.40219268     0.18200
C384        C  0.57184034  0.91903777  0.44207926    -0.25800
C385        C  0.56241199  0.93977626  0.44999744     0.36200
C386        C  0.54798665  0.93278892  0.46798769    -0.19800
C387        C  0.54311558  0.90488354  0.47734484    -0.25100
C388        C  0.55172127  0.88375498  0.46911653     0.27600
H389        H  0.58322755  0.92449829  0.42843576     0.13400
N390        N  0.56733774  0.96761662  0.43969787    -0.82300
H391        H  0.53200062  0.89909970  0.49105260     0.18200
N392        N  0.54531152  0.85472864  0.47861564    -0.80900
H393        H  0.57994229  0.97008218  0.42730423     0.33800
H394        H  0.54473919  0.96361254  0.43560181     0.38300
H395        H  0.53462511  0.85303078  0.49163259     0.33800
H396        H  0.52854443  0.83534054  0.47060472     0.30500
H397        H  0.53384980  0.85125480  0.40202229     0.33800
H398        H  0.51968461  0.85285074  0.42321651     0.30500
H399        H  0.64961410  0.84422561  0.44374933     0.38400
H400        H  0.63557012  0.84622007  0.46491232     0.33900
C401        C  0.63616463  0.79695570  0.36990610    -0.19900
C402        C  0.62111995  0.80266825  0.35459651     0.36300
C403        C  0.63660544  0.81074150  0.33715656    -0.25900
C404        C  0.66647631  0.81269231  0.33477216     0.02800
C405        C  0.68111031  0.80617129  0.34996699     0.27600
C406        C  0.66580212  0.79844338  0.36743682    -0.25000
N407        N  0.59017317  0.80002314  0.35682193    -0.82400
H408        H  0.62547584  0.81568357  0.32537929     0.13400
C409        C  0.68232959  0.82188160  0.31630398     0.02700
N410        N  0.71139795  0.80741896  0.34755167    -0.81000
H411        H  0.67716533  0.79391140  0.37925895     0.18200
C412        C  0.71241027  0.84983653  0.31481880    -0.25800
C413        C  0.72827799  0.85915842  0.29757610     0.36200
C414        C  0.71375060  0.84041070  0.28153664    -0.19800
C415        C  0.68365992  0.81245584  0.28299066    -0.25100
C416        C  0.66775276  0.80294441  0.30027899     0.27600
H417        H  0.72366314  0.86439231  0.32713030     0.13400
N418        N  0.75950776  0.88715129  0.29646701    -0.82300
H419        H  0.67267922  0.79801395  0.27060527     0.18200
N420        N  0.63710067  0.77402692  0.30170802    -0.80900
H421        H  0.77473588  0.88405122  0.30563065     0.33800
H422        H  0.75775338  0.90685805  0.30110948     0.38300
H423        H  0.62967139  0.76297869  0.28860909     0.33800
H424        H  0.64004298  0.75801899  0.31027734     0.30500
H425        H  0.71895814  0.80218764  0.36014787     0.33800
H426        H  0.70783042  0.78929106  0.33810594     0.30500
H427        H  0.57375514  0.77608703  0.36009132     0.38400
H428        H  0.58249888  0.80501934  0.34419071     0.33900
C429        C  0.80959938  0.70879404  0.18711401    -0.19900
C430        C  0.79841457  0.72528567  0.17575099     0.36300
C431        C  0.78943422  0.74602070  0.18418383    -0.25900
C432        C  0.79107033  0.75014543  0.20364136     0.02800
C433        C  0.80139209  0.73315690  0.21505388     0.27600
C434        C  0.81048381  0.71251941  0.20666429    -0.25000
N435        N  0.79578587  0.72059046  0.15579259    -0.82400
H436        H  0.78101504  0.75895765  0.17560652     0.13400
C437        C  0.78165431  0.77225202  0.21192488     0.02700
N438        N  0.80236182  0.73679894  0.23508369    -0.81000
H439        H  0.81898645  0.69984297  0.21540318     0.18200
C440        C  0.74957556  0.76041025  0.21700614    -0.25800
C441        C  0.73966936  0.78076487  0.22494360     0.36200
C442        C  0.76258129  0.81339604  0.22810226    -0.19800
C443        C  0.79465171  0.82518001  0.22277140    -0.25100
C444        C  0.80441374  0.80489797  0.21463148     0.27600
H445        H  0.73225961  0.73527934  0.21463521     0.13400
N446        N  0.70647233  0.76859744  0.22956160    -0.82300
H447        H  0.81221689  0.85020749  0.22521547     0.18200
N448        N  0.83718423  0.81730882  0.20890959    -0.80900
H449        H  0.69283150  0.74412548  0.22636460     0.33800
H450        H  0.69792827  0.78039287  0.22101629     0.38300
H451        H  0.85071694  0.84198220  0.21157421     0.33800
H452        H  0.84701941  0.80642048  0.21718302     0.30500
H453        H  0.81005140  0.72219897  0.24145539     0.33800
H454        H  0.81959860  0.76050729  0.23825888     0.30500
H455        H  0.77850291  0.69660106  0.15328100     0.38400
H456        H  0.78724928  0.73458612  0.14954915     0.33900
C457        C  0.93883849  0.15713912  0.76073201    -0.19900
C458        C  0.96002681  0.14655444  0.76660692     0.36300
C459        C  0.98817821  0.16788467  0.77623747    -0.25900
C460        C  0.99544955  0.19946169  0.78009319     0.02800
C461        C  0.97404730  0.20990781  0.77438458     0.27600
C462        C  0.94604703  0.18866872  0.76458986    -0.25000
N463        N  0.95313672  0.11443111  0.76245766    -0.82400
H464        H  0.00491421  0.16011257  0.78040270     0.13400
C465        C  0.02640850  0.22171599  0.78923157     0.02700
N466        N  0.98078180  0.24193509  0.77866354    -0.81000
H467        H  0.92948239  0.19652259  0.76018091     0.18200
C468        C  0.04792545  0.25021210  0.78002445    -0.25800
C469        C  0.07820491  0.27135150  0.78765583     0.36200
C470        C  0.08765088  0.26316737  0.80465116    -0.19800
C471        C  0.06567932  0.23475121  0.81397779    -0.25100
C472        C  0.03508400  0.21415049  0.80654858     0.27600
H473        H  0.04109829  0.25586551  0.76669434     0.13400
N474        N  0.09918162  0.30093705  0.77813512    -0.82300
H475        H  0.07236052  0.22838579  0.82711806     0.18200
N476        N  0.01279077  0.18555574  0.81647930    -0.80900
H477        H  0.08891375  0.30256553  0.76555162     0.33800
H478        H  0.10140016  0.31972110  0.78658789     0.38300
H479        H  0.02294000  0.18338454  0.82897075     0.33800
H480        H  0.99314030  0.18807077  0.82022081     0.30500
H481        H  0.96270233  0.24583346  0.77339722     0.33800
H482        H  0.98038597  0.24385928  0.79323959     0.30500
H483        H  0.95360519  0.11236079  0.74789355     0.38400
H484        H  0.97109395  0.11044508  0.76783179     0.33900
C485        C  0.60459584  0.04542827  0.51814069    -0.19900
C486        C  0.62396314  0.07852316  0.51403262     0.36300
C487        C  0.65368080  0.09635157  0.52310231    -0.25900
C488        C  0.66405368  0.08190579  0.53629546     0.02800
C489        C  0.64490351  0.04906265  0.54044787     0.27600
C490        C  0.61527014  0.03113215  0.53137114    -0.25000
N491        N  0.61319790  0.09407247  0.50104992    -0.82400
H492        H  0.66864191  0.12176626  0.52014870     0.13400
C493        C  0.69496479  0.10173587  0.54585434     0.02700
N494        N  0.65576310  0.03412385  0.55379461    -0.81000
H495        H  0.60060270  0.00576287  0.53450641     0.18200
C496        C  0.69508654  0.10976226  0.56472421    -0.25800
C497        C  0.72397896  0.13030728  0.57389324     0.36200
C498        C  0.75319969  0.14276528  0.56405456    -0.19800
C499        C  0.75300640  0.13399262  0.54527255    -0.25100
C500        C  0.72407699  0.11346226  0.53607024     0.27600
H501        H  0.67259232  0.10071038  0.57219848     0.13400
N502        N  0.72346046  0.13946050  0.59293326    -0.82300
H503        H  0.77550130  0.14332285  0.53777358     0.18200
N504        N  0.72400000  0.10460066  0.51682760    -0.80900
H505        H  0.70926723  0.15028905  0.59359566     0.33800
H506        H  0.71248892  0.11857843  0.60106973     0.38300
H507        H  0.74743349  0.11540697  0.51162975     0.33800
H508        H  0.71500404  0.07978759  0.51642961     0.30500
H509        H  0.63874627  0.00977661  0.55532416     0.33800
H510        H  0.67641287  0.03513119  0.54832848     0.30500
H511        H  0.59301138  0.09356329  0.50688470     0.38400
H512        H  0.63054124  0.11831349  0.49949021     0.33900
C513        C  0.83126165  0.17513642  0.61691894    -0.19900
C514        C  0.81182245  0.17030835  0.63272861     0.36300
C515        C  0.82029511  0.16256740  0.64995756    -0.25900
C516        C  0.84785361  0.15978410  0.65163221     0.02800
C517        C  0.86756782  0.16506329  0.63589200     0.27600
C518        C  0.85907219  0.17278500  0.61862196    -0.25000
N519        N  0.78365645  0.17339048  0.63118192    -0.82400
H520        H  0.80530514  0.15850640  0.66213890     0.13400
C521        C  0.85552688  0.15110748  0.67001154     0.02700
N522        N  0.89603293  0.16254706  0.63755633    -0.81000
H523        H  0.87389262  0.17658854  0.60639339     0.18200
C524        C  0.85481246  0.12171352  0.67199324    -0.25800
C525        C  0.86082669  0.11216964  0.68942124     0.36200
C526        C  0.86751974  0.13246369  0.70508809    -0.19800
C527        C  0.86857109  0.16201844  0.70302188    -0.25100
C528        C  0.86259805  0.17155306  0.68560517     0.27600
H529        H  0.84930056  0.10612762  0.65992360     0.13400
N530        N  0.86040467  0.08215057  0.69126998    -0.82300
H531        H  0.87378962  0.17753423  0.71509977     0.18200
N532        N  0.86362007  0.20184399  0.68364344    -0.80900
H533        H  0.85496692  0.07005533  0.67843354     0.33800
H534        H  0.88362040  0.08737698  0.69484139     0.38300
H535        H  0.86893529  0.21391654  0.69648369     0.33800
H536        H  0.88254995  0.21612404  0.67459911     0.30500
H537        H  0.90774561  0.16694947  0.62464662     0.33800
H538        H  0.91174985  0.18069088  0.64665284     0.30500
H539        H  0.79120041  0.19728962  0.62775474     0.38400
H540        H  0.77194126  0.16895518  0.64409391     0.33900
C541        C  0.73126419  0.90939918  0.80593278    -0.19900
C542        C  0.71739186  0.92285156  0.79415272     0.36300
C543        C  0.73740846  0.95173125  0.78471696    -0.25900
C544        C  0.77074363  0.96739901  0.78706812     0.02800
C545        C  0.78461612  0.95439148  0.79904491     0.27600
C546        C  0.76468100  0.92553837  0.80847777    -0.25000
N547        N  0.68311367  0.90744076  0.79205301    -0.82400
H548        H  0.72705867  0.96224289  0.77560933     0.13400
C549        C  0.79102583  0.99774679  0.77707279     0.02700
N550        N  0.81887813  0.97048547  0.80143771    -0.81000
H551        H  0.77532433  0.91516353  0.81746122     0.18200
C552        C  0.80301065  0.02671311  0.78687504    -0.25800
C553        C  0.82350849  0.05608897  0.77810647     0.36200
C554        C  0.83274359  0.05621391  0.75929995    -0.19800
C555        C  0.81985686  0.02714798  0.74935766    -0.25100
C556        C  0.79900523  0.99781150  0.75810515     0.27600
H557        H  0.79632115  0.02630606  0.80141041     0.13400
N558        N  0.83484866  0.08577292  0.78815611    -0.82300
H559        H  0.82685309  0.02727245  0.73491845     0.18200
N560        N  0.78622769  0.96807026  0.74794831    -0.80900
H561        H  0.82585585  0.08141940  0.80182712     0.33800
H562        H  0.82557169  0.09877219  0.78147989     0.38300
H563        H  0.79423415  0.97233440  0.73407049     0.33800
H564        H  0.79546483  0.95457725  0.75404309     0.30500
H565        H  0.82522058  0.95785704  0.81082392     0.33800
H566        H  0.82894558  0.97017389  0.78851915     0.30500
H567        H  0.67352964  0.90789958  0.80511700     0.38400
H568        H  0.67691398  0.92046214  0.78288397     0.33900
C569        C  0.83278429  0.73626610  0.76401368    -0.19900
C570        C  0.80519701  0.71471507  0.77414362     0.36300
C571        C  0.78607870  0.72594408  0.78227533    -0.25900
C572        C  0.79394589  0.75811795  0.78025582     0.02800
C573        C  0.82152338  0.77961905  0.77004313     0.27600
C574        C  0.84086575  0.76848350  0.76213644    -0.25000
N575        N  0.79736198  0.68188087  0.77663995    -0.82400
H576        H  0.76508420  0.70966237  0.79033829     0.13400
C577        C  0.77335176  0.76912382  0.78914236     0.02700
N578        N  0.82958862  0.81255005  0.76767855    -0.81000
H579        H  0.86216803  0.78484657  0.75432326     0.18200
C580        C  0.78681933  0.79383173  0.80245983    -0.25800
C581        C  0.76835463  0.80545810  0.81098368     0.36200
C582        C  0.73546445  0.79152336  0.80631452    -0.19800
C583        C  0.72202605  0.76666450  0.79300660    -0.25100
C584        C  0.74066683  0.75536540  0.78433336     0.27600
H585        H  0.81196215  0.80422122  0.80610602     0.13400
N586        N  0.78306023  0.83165872  0.82408655    -0.82300
H587        H  0.69682527  0.75586576  0.78941953     0.18200
N588        N  0.72664898  0.73014798  0.77058774    -0.80900
H589        H  0.80724295  0.83873613  0.82611879     0.33800
H590        H  0.78260736  0.85130333  0.81808975     0.38300
H591        H  0.70228828  0.72247696  0.76875123     0.33800
H592        H  0.73785738  0.73979500  0.75777382     0.30500
H593        H  0.85067791  0.82519418  0.75987906     0.33800
H594        H  0.81126374  0.81264532  0.75981907     0.30500
H595        H  0.79108910  0.67066431  0.76354859     0.38400
H596        H  0.77707024  0.66960196  0.78512851     0.33900
C597        C  0.81987867  0.60198866  0.62457693    -0.19900
C598        C  0.79620371  0.58966309  0.63876111     0.36300
C599        C  0.80350055  0.60411058  0.65654840    -0.25900
C600        C  0.83413479  0.62982362  0.66052848     0.02800
C601        C  0.85831295  0.64105048  0.64680125     0.27600
C602        C  0.85087590  0.62718319  0.62888896    -0.25000
N603        N  0.76505113  0.56237522  0.63513121    -0.82400
H604        H  0.78526069  0.59541727  0.66735793     0.13400
C605        C  0.84022071  0.64583292  0.67888195     0.02700
N606        N  0.89026451  0.66639454  0.65114982    -0.81000
H607        H  0.86918872  0.63654214  0.61812529     0.18200
C608        C  0.85113519  0.63487606  0.69379976    -0.25800
C609        C  0.85802446  0.65034565  0.71129290     0.36200
C610        C  0.85453483  0.67767199  0.71362669    -0.19800
C611        C  0.84269667  0.68791910  0.69874492    -0.25100
C612        C  0.83538646  0.67216553  0.68138917     0.27600
H613        H  0.85427234  0.61425692  0.69174558     0.13400
N614        N  0.86827668  0.63833035  0.72669996    -0.82300
H615        H  0.83992481  0.70880693  0.70052236     0.18200
N616        N  0.82299607  0.68268243  0.66629505    -0.80900
H617        H  0.86960111  0.61811618  0.72263165     0.33800
H618        H  0.85062799  0.63069827  0.73707256     0.38300
H619        H  0.82022975  0.70198201  0.67056582     0.33800
H620        H  0.84005209  0.69132944  0.65557509     0.30500
H621        H  0.90537964  0.67139311  0.63959551     0.33800
H622        H  0.88923989  0.68725234  0.65382132     0.30500
H623        H  0.76821457  0.54277466  0.63231766     0.38400
H624        H  0.75053979  0.55639376  0.64704254     0.33900
C625        C  0.85089736  0.56316614  0.56776664    -0.19900
C626        C  0.86563504  0.57777230  0.55070885     0.36300
C627        C  0.88523106  0.56818570  0.54156336    -0.25900
C628        C  0.89034361  0.54428897  0.54927368     0.02800
C629        C  0.87580517  0.52970368  0.56638278     0.27600
C630        C  0.85629896  0.53946270  0.57556638    -0.25000
N631        N  0.86115790  0.60270697  0.54285030    -0.82400
H632        H  0.89664877  0.57952556  0.52846104     0.13400
C633        C  0.91134974  0.53502619  0.53937010     0.02700
N634        N  0.88078439  0.50495908  0.57422579    -0.81000
H635        H  0.84470769  0.52811318  0.58862941     0.18200
C636        C  0.94266574  0.54662221  0.54589146    -0.25800
C637        C  0.96370525  0.53888560  0.53668306     0.36200
C638        C  0.95278770  0.51853016  0.52075371    -0.19800
C639        C  0.92123041  0.50707474  0.51429522    -0.25100
C640        C  0.90038937  0.51507995  0.52349096     0.27600
H641        H  0.95079553  0.56213333  0.55809266     0.13400
N642        N  0.99608873  0.55196187  0.54337079    -0.82300
H643        H  0.91255262  0.49139647  0.50218971     0.18200
N644        N  0.86810138  0.50296206  0.51687062    -0.80900
H645        H  0.99982021  0.56572647  0.55544458     0.33800
H646        H  0.01135169  0.56773608  0.53312084     0.38300
H647        H  0.86381598  0.48872243  0.50495041     0.33800
H648        H  0.85253522  0.48789227  0.52725386     0.30500
H649        H  0.86849068  0.49680894  0.58691804     0.33800
H650        H  0.87063032  0.48541152  0.56502014     0.30500
H651        H  0.85140461  0.59549770  0.52943776     0.38400
H652        H  0.88370938  0.62332335  0.54148868     0.33900
C653        C  0.95542203  0.39984326  0.51861622    -0.19900
C654        C  0.96282758  0.39257572  0.53656651     0.36300
C655        C  0.94219693  0.36257787  0.54472070    -0.25900
C656        C  0.91487837  0.33932540  0.53525698     0.02800
C657        C  0.90768737  0.34613886  0.51728867     0.27600
C658        C  0.92785131  0.37633539  0.50922960    -0.25000
N659        N  0.99101850  0.41550501  0.54658033    -0.82400
H660        H  0.94746832  0.35719395  0.55858456     0.13400
C661        C  0.89398819  0.30799083  0.54445610     0.02700
N662        N  0.88002281  0.32229288  0.50727345    -0.81000
H663        H  0.92190524  0.38141768  0.49547959     0.18200
C664        C  0.86161395  0.29820866  0.54767875    -0.25800
C665        C  0.84129909  0.26909666  0.55681112     0.36200
C666        C  0.85369615  0.24936943  0.56275783    -0.19800
C667        C  0.88611406  0.25926067  0.55960848    -0.25100
C668        C  0.90635845  0.28828439  0.55038764     0.27600
H669        H  0.85233896  0.31363312  0.54330543     0.13400
N670        N  0.80833050  0.25975335  0.56034896    -0.82300
H671        H  0.89548598  0.24396009  0.56406754     0.18200
N672        N  0.93933328  0.29770933  0.54683218    -0.80900
H673        H  0.80303525  0.27685373  0.55500551     0.33800
H674        H  0.80531430  0.25939838  0.57486917     0.38300
H675        H  0.94466510  0.28062041  0.55215336     0.33800
H676        H  0.94231154  0.29806149  0.53230892     0.30500
H677        H  0.87799079  0.33115481  0.49426780     0.33800
H678        H  0.88364150  0.30294986  0.50453903     0.30500
H679        H  0.01093625  0.41771074  0.53936744     0.38400
H680        H  0.99180739  0.40691641  0.55992169     0.33900
C681        C  0.19171410  0.24383532  0.22752669    -0.19900
C682        C  0.20248126  0.22496697  0.23669360     0.36300
C683        C  0.22170024  0.21546963  0.22703229    -0.25900
C684        C  0.23006662  0.22423807  0.20828096     0.02800
C685        C  0.21961138  0.24329174  0.19905294     0.27600
C686        C  0.20037658  0.25284972  0.20877112    -0.25000
N687        N  0.19298001  0.21444836  0.25558031    -0.82400
H688        H  0.22965748  0.20067277  0.23407976     0.13400
C689        C  0.24956920  0.21290869  0.19849649     0.02700
N690        N  0.22856432  0.25274815  0.17990070    -0.81000
H691        H  0.19210094  0.26738425  0.20173343     0.18200
C692        C  0.23504248  0.18848582  0.18507113    -0.25800
C693        C  0.25237322  0.17561299  0.17639709     0.36200
C694        C  0.28505051  0.18795940  0.18110906    -0.19800
C695        C  0.29951257  0.21276870  0.19441557    -0.25100
C696        C  0.28209638  0.22541374  0.20311397     0.27600
H697        H  0.20987979  0.17890493  0.18174983     0.13400
N698        N  0.23666627  0.14954672  0.16329069    -0.82300
H699        H  0.32459765  0.22249204  0.19798416     0.18200
N700        N  0.29718863  0.25083390  0.21666798    -0.80900
H701        H  0.21276677  0.14359648  0.16130546     0.33800
H702        H  0.23607602  0.12937107  0.16926179     0.38300
H703        H  0.32122706  0.25724471  0.21857951     0.33800
H704        H  0.29722246  0.27103383  0.21116815     0.30500
H705        H  0.21877924  0.26662745  0.17514714     0.33800
H706        H  0.25351265  0.26756129  0.17951613     0.30500
H707        H  0.21375671  0.22262314  0.26368281     0.38400
H708        H  0.18075978  0.18932449  0.25570494     0.33900
C709        C  0.17383430  0.41901690  0.42277783    -0.19900
C710        C  0.18342286  0.44983529  0.43003112     0.36300
C711        C  0.16085006  0.45571322  0.43883628    -0.25900
C712        C  0.12866761  0.43149350  0.44028275     0.02800
C713        C  0.11868715  0.40085129  0.43270142     0.27600
C714        C  0.14141367  0.39489149  0.42397749    -0.25000
N715        N  0.21589951  0.47544008  0.42807949    -0.82400
H716        H  0.16840846  0.47942068  0.44443785     0.13400
C717        C  0.10581545  0.43892236  0.44971613     0.02700
N718        N  0.08565101  0.37594805  0.43406350    -0.81000
H719        H  0.13396259  0.37118678  0.41842971     0.18200
C720        C  0.08373627  0.44294710  0.43893929    -0.25800
C721        C  0.06357524  0.45284689  0.44721418     0.36200
C722        C  0.06526700  0.45827600  0.46680974    -0.19800
C723        C  0.08708647  0.45349618  0.47756044    -0.25100
C724        C  0.10729581  0.44379604  0.46920477     0.27600
H725        H  0.08297930  0.43929763  0.42392139     0.13400
N726        N  0.04213587  0.45819267  0.43568233    -0.82300
H727        H  0.08836881  0.45725718  0.49257458     0.18200
N728        N  0.12947858  0.43901106  0.48036929    -0.80900
H729        H  0.04343400  0.45240531  0.42171100     0.33800
H730        H  0.05010462  0.48282073  0.43596852     0.38300
H731        H  0.12772066  0.44373302  0.49448595     0.33800
H732        H  0.12266432  0.41469243  0.47949381     0.30500
H733        H  0.08222637  0.35485714  0.42769442     0.33800
H734        H  0.08035716  0.37068619  0.44826989     0.30500
H735        H  0.22504464  0.48395336  0.44146927     0.38400
H736        H  0.21565398  0.49410294  0.42067221     0.33900
C737        C  0.16636986  0.29369956  0.28172158    -0.19900
C738        C  0.14497580  0.28314862  0.29708838     0.36300
C739        C  0.15436287  0.30055953  0.31393923    -0.25900
C740        C  0.18496354  0.32754169  0.31594947     0.02800
C741        C  0.20694576  0.33731070  0.30100603     0.27600
C742        C  0.19725769  0.32054412  0.28393209    -0.25000
N743        N  0.11417045  0.25439509  0.29569611    -0.82400
H744        H  0.13794748  0.29281225  0.32570473     0.13400
C745        C  0.19373374  0.34455130  0.33410037     0.02700
N746        N  0.23924532  0.36343537  0.30342670    -0.81000
H747        H  0.21388468  0.32848318  0.27227593     0.18200
C748        C  0.20332720  0.33195101  0.34883532    -0.25800
C749        C  0.20965615  0.34600738  0.36672965     0.36200
C750        C  0.20704100  0.37369880  0.36973484    -0.19800
C751        C  0.19734827  0.38618295  0.35491248    -0.25100
C752        C  0.19033067  0.37167004  0.33714707     0.27600
H753        H  0.20512055  0.31062211  0.34643383     0.13400
N754        N  0.21781252  0.33177281  0.38195488    -0.82300
H755        H  0.19511640  0.40727185  0.35725103     0.18200
N756        N  0.17855336  0.38354198  0.32243442    -0.80900
H757        H  0.21862816  0.31151192  0.37738755     0.33800
H758        H  0.19932652  0.32370675  0.39181964     0.38300
H759        H  0.17645234  0.40299987  0.32718081     0.33800
H760        H  0.19558091  0.39235715  0.31171721     0.30500
H761        H  0.25262727  0.36691153  0.29123541     0.33800
H762        H  0.23835485  0.38449173  0.30549009     0.30500
H763        H  0.11820642  0.23513529  0.29371566     0.38400
H764        H  0.10145224  0.24999576  0.30824974     0.33900
C765        C  0.08260206  0.81080740  0.23486738    -0.19900
C766        C  0.05412379  0.80012912  0.24532617     0.36300
C767        C  0.02442563  0.77873620  0.23706235    -0.25900
C768        C  0.02269374  0.76821454  0.21854909     0.02800
C769        C  0.05114606  0.77832349  0.20824992     0.27600
C770        C  0.08081319  0.79957381  0.21650544    -0.25000
N771        N  0.05537718  0.81182890  0.26402635    -0.82400
H772        H  0.00243549  0.77106725  0.24484149     0.13400
C773        C  0.99088498  0.74815125  0.20968934     0.02700
N774        N  0.04969017  0.76708750  0.18940770    -0.81000
H775        H  0.10270365  0.80753416  0.20856720     0.18200
C776        C  0.98283446  0.76014079  0.19396711    -0.25800
C777        C  0.95305437  0.74217582  0.18498887     0.36200
C778        C  0.93081474  0.71119412  0.19182646    -0.19800
C779        C  0.93882537  0.69953342  0.20784938    -0.25100
C780        C  0.96868165  0.71764901  0.21679590     0.27600
H781        H  0.99987216  0.78387504  0.18878800     0.13400
N782        N  0.94539496  0.75552303  0.16909032    -0.82300
H783        H  0.92202237  0.67589499  0.21322834     0.18200
N784        N  0.97676592  0.70504205  0.23287199    -0.80900
H785        H  0.96474780  0.77805536  0.16560787     0.33800
H786        H  0.92663244  0.75934909  0.17304370     0.38300
H787        H  0.95776521  0.68230878  0.23637200     0.33800
H788        H  0.99606034  0.70191913  0.22915232     0.30500
H789        H  0.07273191  0.77694968  0.18372183     0.33800
H790        H  0.04035809  0.74223460  0.19002036     0.30500
H791        H  0.06406105  0.83655408  0.26314866     0.38400
H792        H  0.03233896  0.80157287  0.26975994     0.33900
C793        C  0.18472253  0.91505227  0.22845719    -0.19900
C794        C  0.21610989  0.92370772  0.22279724     0.36300
C795        C  0.23452302  0.95254803  0.21290983    -0.25900
C796        C  0.22204844  0.97269065  0.20855893     0.02800
C797        C  0.19051165  0.96379285  0.21400105     0.27600
C798        C  0.17206087  0.93489508  0.22377321    -0.25000
N799        N  0.22899025  0.90308224  0.22700025    -0.82400
H800        H  0.25873877  0.95947368  0.20861265     0.13400
C801        C  0.24278139  0.00381356  0.19910025     0.02700
N802        N  0.17765339  0.98448243  0.20992009    -0.81000
H803        H  0.14792084  0.92812360  0.22815665     0.18200
C804        C  0.23414415  0.00976551  0.18140900    -0.25800
C805        C  0.25263624  0.03959584  0.17241998     0.36200
C806        C  0.28077120  0.06389116  0.18129405    -0.19800
C807        C  0.28930881  0.05745299  0.19898635    -0.25100
C808        C  0.27054863  0.02787232  0.20799807     0.27600
H809        H  0.21264367  0.99110647  0.17469961     0.13400
N810        N  0.24271577  0.04511334  0.15444795    -0.82300
H811        H  0.31067417  0.07568291  0.20599812     0.18200
N812        N  0.27933574  0.02227052  0.22629922    -0.80900
H813        H  0.22245064  0.02430771  0.14961335     0.33800
H814        H  0.23559475  0.06223755  0.15632359     0.38300
H815        H  0.30054708  0.04232717  0.23089054     0.33800
H816        H  0.26132647  0.01936398  0.23562431     0.30500
H817        H  0.15409787  0.97438903  0.21483899     0.33800
H818        H  0.19125416  0.00586612  0.21736142     0.30500
H819        H  0.25239379  0.91295490  0.22187148     0.38400
H820        H  0.21512570  0.88145547  0.21982432     0.33900
C821        C  0.42738247  0.93231203  0.46983133    -0.19900
C822        C  0.41997409  0.93667745  0.45120711     0.36300
C823        C  0.38934410  0.91572330  0.44395905    -0.25900
C824        C  0.36592131  0.89092429  0.45487694     0.02800
C825        C  0.37284692  0.88672123  0.47344875     0.27600
C826        C  0.40353551  0.90733443  0.48071852    -0.25000
N827        N  0.44344737  0.96190445  0.43956993    -0.82400
H828        H  0.38364167  0.91861196  0.42964580     0.13400
C829        C  0.33443872  0.86909953  0.44637783     0.02700
N830        N  0.34865875  0.86156614  0.48480690    -0.81000
H831        H  0.40872591  0.90382440  0.49501678     0.18200
C832        C  0.32584709  0.83703870  0.44309036    -0.25800
C833        C  0.29710715  0.81609638  0.43382862     0.36200
C834        C  0.27647264  0.82750492  0.42808293    -0.19800
C835        C  0.28506122  0.85957785  0.43153534    -0.25100
C836        C  0.31387997  0.88051667  0.44070344     0.27600
H837        H  0.34204868  0.82863884  0.44734530     0.13400
N838        N  0.28914631  0.78359308  0.42984596    -0.82300
H839        H  0.26904736  0.86816888  0.42721410     0.18200
N840        N  0.32243263  0.91329297  0.44430558    -0.80900
H841        H  0.30687060  0.77908334  0.43503234     0.33800
H842        H  0.28901706  0.78113408  0.41528659     0.38300
H843        H  0.30476885  0.91791342  0.43914679     0.33800
H844        H  0.32299386  0.91629170  0.45883734     0.30500
H845        H  0.35767787  0.86158134  0.49814921     0.33800
H846        H  0.33009177  0.86666982  0.48665854     0.30500
H847        H  0.44687281  0.98367628  0.44488866     0.38400
H848        H  0.43470390  0.96012399  0.42593749     0.33900
C849        C  0.17064043  0.72592206  0.42632342    -0.19900
C850        C  0.17944580  0.70302562  0.43158373     0.36300
C851        C  0.15646550  0.67407402  0.43984193    -0.25900
C852        C  0.12503601  0.66766282  0.44286825     0.02800
C853        C  0.11614553  0.69040429  0.43764977     0.27600
C854        C  0.13909767  0.71940348  0.42937707    -0.25000
N855        N  0.21151883  0.70911932  0.42831863    -0.82400
H856        H  0.16296789  0.65631145  0.44388730     0.13400
C857        C  0.10170910  0.63670670  0.45138341     0.02700
N858        N  0.08392767  0.68391010  0.44080334    -0.81000
H859        H  0.13248485  0.73711545  0.42541324     0.18200
C860        C  0.09435081  0.63561393  0.47044300    -0.25800
C861        C  0.07432409  0.60613102  0.47933870     0.36200
C862        C  0.06165317  0.57739373  0.46887277    -0.19800
C863        C  0.06805845  0.57874647  0.44961713    -0.25100
C864        C  0.08814076  0.60821016  0.44076871     0.27600
H865        H  0.10472783  0.65776605  0.47841955     0.13400
N866        N  0.06670433  0.60523199  0.49888099    -0.82300
H867        H  0.05815869  0.55666673  0.44159426     0.18200
N868        N  0.09538776  0.60936731  0.42115291    -0.80900
H869        H  0.07799271  0.62843727  0.50450261     0.33800
H870        H  0.04199081  0.59639694  0.49989411     0.38300
H871        H  0.08375841  0.58625689  0.41539788     0.33800
H872        H  0.08597454  0.62219370  0.41441334     0.30500
H873        H  0.08139337  0.70325275  0.43631088     0.33800
H874        H  0.06861286  0.66426158  0.43245256     0.30500
H875        H  0.21514955  0.71046877  0.41383110     0.38400
H876        H  0.21405457  0.68991980  0.43309534     0.33900
C877        C  0.16474635  0.84745353  0.28590166    -0.19900
C878        C  0.19309744  0.84595386  0.28831274     0.36300
C879        C  0.20052652  0.83889909  0.30610550    -0.25900
C880        C  0.18007876  0.83316113  0.32140391     0.02800
C881        C  0.15208102  0.83527223  0.31909700     0.27600
C882        C  0.14469962  0.84243679  0.30133592    -0.25000
N883        N  0.21372286  0.85075390  0.27261362    -0.82400
H884        H  0.22202385  0.83725179  0.30802480     0.13400
C885        C  0.18754865  0.82351157  0.33956520     0.02700
N886        N  0.13101820  0.82952493  0.33470990    -0.81000
H887        H  0.12299341  0.84371030  0.29942274     0.18200
C888        C  0.19501043  0.84382703  0.35513098    -0.25800
C889        C  0.20197310  0.83516598  0.37258636     0.36200
C890        C  0.20166456  0.80573935  0.37436062    -0.19800
C891        C  0.19394103  0.78534467  0.35880232    -0.25100
C892        C  0.18677106  0.79390793  0.34140415     0.27600
H893        H  0.19530907  0.86642697  0.35362331     0.13400
N894        N  0.20894506  0.85585940  0.38856044    -0.82300
H895        H  0.19364561  0.76273523  0.36024932     0.18200
N896        N  0.17847620  0.77263238  0.32560711    -0.80900
H897        H  0.20820467  0.87655316  0.38488217     0.33800
H898        H  0.19069563  0.84359549  0.39838179     0.38300
H899        H  0.17916669  0.75190509  0.32927238     0.33800
H900        H  0.15468809  0.76520483  0.32199791     0.30500
H901        H  0.11155798  0.83218540  0.33067196     0.33800
H902        H  0.12153855  0.80554343  0.33875020     0.30500
H903        H  0.20084392  0.83208264  0.26310087     0.38400
H904        H  0.23359621  0.84890998  0.27678819     0.33900
C905        C  0.08693636  0.24134753  0.22927576    -0.19900
C906        C  0.06743729  0.20973417  0.22253451     0.36300
C907        C  0.03843794  0.20133306  0.21348312    -0.25900
C908        C  0.02816268  0.22376366  0.21131014     0.02800
C909        C  0.04694061  0.25507741  0.21854765     0.27600
C910        C  0.07622069  0.26359660  0.22747230    -0.25000
N911        N  0.07665125  0.18587624  0.22522992    -0.82400
H912        H  0.02367942  0.17705322  0.20826576     0.13400
C913        C  0.99741486  0.21385837  0.20161410     0.02700
N914        N  0.03634214  0.27811348  0.21658576    -0.81000
H915        H  0.09107794  0.28787070  0.23264928     0.18200
C916        C  0.97173849  0.21207906  0.21178805    -0.25800
C917        C  0.94163901  0.20126426  0.20336858     0.36200
C918        C  0.93742706  0.19279294  0.18409915    -0.19800
C919        C  0.96347859  0.19489914  0.17396077    -0.25100
C920        C  0.99337751  0.20526730  0.18253794     0.27600
H921        H  0.97502972  0.21835723  0.22652775     0.13400
N922        N  0.91533832  0.19819419  0.21449913    -0.82300
H923        H  0.96057889  0.18843637  0.15926019     0.18200
N924        N  0.01970567  0.20712352  0.17199003    -0.80900
H925        H  0.92288795  0.20642786  0.22815050     0.33800
H926        H  0.89864068  0.17367213  0.21562532     0.38300
H927        H  0.01276025  0.19975154  0.15815504     0.33800
H928        H  0.03766751  0.23128793  0.17143658     0.30500
H929        H  0.05281805  0.29998890  0.22275636     0.33800
H930        H  0.03592124  0.28258246  0.20228058     0.30500
H931        H  0.07803980  0.17707691  0.21207747     0.38400
H932        H  0.05854835  0.16688702  0.23285358     0.33900
C933        C  0.76733325  0.91954294  0.22961649    -0.19900
C934        C  0.78486466  0.94815881  0.24005080     0.36300
C935        C  0.79555078  0.97790053  0.23119175    -0.25900
C936        C  0.78920781  0.97957914  0.21216304     0.02800
C937        C  0.77166974  0.95102635  0.20174924     0.27600
C938        C  0.76099588  0.92130695  0.21057942    -0.25000
N939        N  0.79233398  0.94695072  0.25944690    -0.82400
H940        H  0.80934018  0.99994189  0.23906357     0.13400
C941        C  0.80112400  0.01140508  0.20326496     0.02700
N942        N  0.76460899  0.95236908  0.18229351    -0.81000
H943        H  0.74740002  0.89933765  0.20261401     0.18200
C944        C  0.82156688  0.01972989  0.18774531    -0.25800
C945        C  0.83267053  0.04925661  0.17854528     0.36200
C946        C  0.82277276  0.07087583  0.18496747    -0.19800
C947        C  0.80298563  0.06272179  0.20087147    -0.25100
C948        C  0.79197922  0.03320244  0.21003152     0.27600
H949        H  0.82899470  0.00308147  0.18285400     0.13400
N950        N  0.85403715  0.05725545  0.16283856    -0.82300
H951        H  0.79540702  0.07911761  0.20598155     0.18200
N952        N  0.77106959  0.02500201  0.22597160    -0.80900
H953        H  0.85809329  0.03832153  0.15967333     0.33800
H954        H  0.87622489  0.07662347  0.16685069     0.38300
H955        H  0.76680528  0.04375669  0.22925961     0.33800
H956        H  0.74892021  0.00532233  0.22222540     0.30500
H957        H  0.75169934  0.92923974  0.17663533     0.33800
H958        H  0.74964464  0.96232580  0.18150835     0.30500
H959        H  0.80741644  0.93711902  0.26010503     0.38400
H960        H  0.80522291  0.97010391  0.26507384     0.33900
C961        C  0.14469997  0.37594108  0.85215368    -0.19900
C962        C  0.13998166  0.39831405  0.84164060     0.36300
C963        C  0.13113653  0.41854326  0.85092419    -0.25900
C964        C  0.12628019  0.41649307  0.87033732     0.02800
C965        C  0.12981394  0.39356025  0.88074656     0.27600
C966        C  0.13884215  0.37344084  0.87155926    -0.25000
N967        N  0.14404977  0.40044838  0.82163542    -0.82400
H968        H  0.12807438  0.43610689  0.84302150     0.13400
C969        C  0.11904078  0.43957349  0.87978460     0.02700
N970        N  0.12492861  0.39134377  0.90068334    -0.81000
H971        H  0.14217492  0.35632289  0.87973876     0.18200
C972        C  0.08892028  0.42857244  0.88809876    -0.25800
C973        C  0.08182239  0.44985961  0.89760062     0.36200
C974        C  0.10532374  0.48265420  0.89900098    -0.19800
C975        C  0.13538061  0.49359277  0.89052514    -0.25100
C976        C  0.14249748  0.47236492  0.88096665     0.27600
H977        H  0.07080721  0.40338215  0.88710858     0.13400
N978        N  0.05049524  0.43826009  0.90538037    -0.82300
H979        H  0.15354788  0.51874328  0.89162082     0.18200
N980        N  0.17355368  0.48383352  0.87263355    -0.80900
H981        H  0.03368675  0.42805283  0.89455501     0.33800
H982        H  0.04621064  0.42012132  0.91499753     0.38300
H983        H  0.18801363  0.50860358  0.87466375     0.33800
H984        H  0.18472248  0.47297549  0.87969784     0.30500
H985        H  0.12833299  0.37314474  0.90628908     0.33800
H986        H  0.14260499  0.41291498  0.90659004     0.30500
H987        H  0.12614377  0.37879945  0.81592543     0.38400
H988        H  0.14028825  0.41851589  0.81618008     0.33900
C989        C  0.88006281  0.59784044  0.14332415    -0.19900
C990        C  0.87095980  0.56671325  0.15012629     0.36300
C991        C  0.88278507  0.54863457  0.14125197    -0.25900
C992        C  0.90333181  0.56083923  0.12577728     0.02800
C993        C  0.91310606  0.59207895  0.11929089     0.27600
C994        C  0.90127375  0.61015976  0.12805241    -0.25000
N995        N  0.84928633  0.55317994  0.16568665    -0.82400
H996        H  0.87521849  0.52449035  0.14608110     0.13400
C997        C  0.91341216  0.54017991  0.11597970     0.02700
N998        N  0.93501445  0.60526585  0.10380757    -0.81000
H999        H  0.90875886  0.63408687  0.12287772     0.18200
C1000       C  0.90604037  0.53347023  0.09689857    -0.25800
C1001       C  0.91504338  0.51398081  0.08702827     0.36200
C1002       C  0.93181973  0.50106722  0.09647346    -0.19800
C1003       C  0.93872522  0.50731080  0.11562739    -0.25100
C1004       C  0.92985223  0.52694874  0.12548050     0.27600
H1005       H  0.89288552  0.54323002  0.08975547     0.13400
N1006       N  0.90678753  0.50680500  0.06756693    -0.82300
H1007       H  0.95152709  0.49720733  0.12281474     0.18200
N1008       N  0.93774263  0.53381032  0.14499746    -0.80900
H1009       H  0.89453732  0.51827891  0.06272601     0.33800
H1010       H  0.89083637  0.48210065  0.06645845     0.38300
H1011       H  0.94970975  0.52207907  0.14988727     0.33800
H1012       H  0.95384036  0.55845992  0.14623828     0.30500
H1013       H  0.93968390  0.62848181  0.10067724     0.33800
H1014       H  0.95683028  0.60737811  0.10800387     0.30500
H1015       H  0.82682535  0.54917009  0.16128154     0.38400
H1016       H  0.84617147  0.53069318  0.16929424     0.33900
C1017       C  0.92825040  0.39613225  0.09058095    -0.19900
C1018       C  0.89521057  0.37483960  0.09326914     0.36300
C1019       C  0.88485229  0.34436187  0.10090425    -0.25900
C1020       C  0.90700629  0.33476188  0.10591265     0.02800
C1021       C  0.94008580  0.35572979  0.10284117     0.27600
C1022       C  0.95037967  0.38620866  0.09505252    -0.25000
N1023       N  0.87212073  0.38398708  0.08800834    -0.82400
H1024       H  0.85939821  0.32811311  0.10296718     0.13400
C1025       C  0.89531078  0.30282753  0.11456170     0.02700
N1026       N  0.96304541  0.34618902  0.10798767    -0.81000
H1027       H  0.97578529  0.40265470  0.09297467     0.18200
C1028       C  0.90119689  0.28040870  0.10556249    -0.25800
C1029       C  0.89131398  0.25013663  0.11350787     0.36200
C1030       C  0.87565522  0.24236726  0.13115816    -0.19800
C1031       C  0.86913807  0.26478467  0.13986318    -0.25100
C1032       C  0.87876872  0.29487180  0.13175012     0.27600
H1033       H  0.91344917  0.28657919  0.09217558     0.13400
N1034       N  0.89734887  0.22756417  0.10367594    -0.82300
H1035       H  0.85682749  0.25907454  0.15321549     0.18200
N1036       N  0.87228011  0.31759508  0.14102680    -0.80900
H1037       H  0.91056195  0.23783360  0.09147431     0.33800
H1038       H  0.87514503  0.20864190  0.09929730     0.38300
H1039       H  0.85966631  0.30793985  0.15348145     0.33800
H1040       H  0.89432362  0.33742487  0.14477486     0.30500
H1041       H  0.98634656  0.36432645  0.10475076     0.33800
H1042       H  0.96212578  0.34341201  0.12254567     0.30500
H1043       H  0.85874410  0.38247384  0.09989155     0.38400
H1044       H  0.85651362  0.36736950  0.07817798     0.33900
C1045       C  0.98977883  0.48330938  0.04385168    -0.19900
C1046       C  0.01763763  0.48088054  0.04137980     0.36300
C1047       C  0.03390432  0.48986910  0.02416381    -0.25900
C1048       C  0.02292019  0.50132445  0.00952660     0.02800
C1049       C  0.99594545  0.50503345  0.01220296     0.27600
C1050       C  0.97958886  0.49596557  0.02937041    -0.25000
N1051       N  0.02916543  0.46918949  0.05631171    -0.82400
H1052       H  0.05481060  0.48729898  0.02196997     0.13400
C1053       C  0.03856290  0.50724464  0.99103306     0.02700
N1054       N  0.98503004  0.51744579  0.99733702    -0.81000
H1055       H  0.95828780  0.49794617  0.03129386     0.18200
C1056       C  0.02242120  0.48538281  0.97651994    -0.25800
C1057       C  0.03629390  0.48978664  0.95870163     0.36200
C1058       C  0.06701709  0.51649435  0.95546529    -0.19800
C1059       C  0.08316985  0.53841216  0.97003294    -0.25100
C1060       C  0.06918231  0.53401248  0.98785447     0.27600
H1061       H  0.99882681  0.46490776  0.97912952     0.13400
N1062       N  0.01908196  0.46766628  0.94378437    -0.82300
H1063       H  0.10663895  0.55906912  0.96741776     0.18200
N1064       N  0.08571498  0.55661143  0.00267891    -0.80900
H1065       H  0.01424298  0.48022272  0.93352527     0.33800
H1066       H  0.99685808  0.44929679  0.94851798     0.38300
H1067       H  0.10806742  0.57489764  0.99805229     0.33800
H1068       H  0.07225209  0.56754857  0.00605978     0.30500
H1069       H  0.96470895  0.51844242  0.00151155     0.33800
H1070       H  0.00307465  0.54113546  0.99483213     0.30500
H1071       H  0.03597060  0.48557593  0.06737742     0.38400
H1072       H  0.04978595  0.46873351  0.05216856     0.33900
C1073       C  0.52111975  0.90274049  0.90042513    -0.19900
C1074       C  0.53333893  0.88608303  0.91077081     0.36300
C1075       C  0.55385445  0.87726614  0.90194850    -0.25900
C1076       C  0.56179172  0.88417350  0.88298320     0.02800
C1077       C  0.54963548  0.90074068  0.87263027     0.27600
C1078       C  0.52946073  0.90994398  0.88147859    -0.25000
N1079       N  0.52413631  0.87735467  0.92998541    -0.82400
H1080       H  0.56303697  0.86417262  0.90972528     0.13400
C1081       C  0.58208363  0.87299744  0.87396902     0.02700
N1082       N  0.55781906  0.90804731  0.85318446    -0.81000
H1083       H  0.52018391  0.92281972  0.87357147     0.18200
C1084       C  0.56920889  0.85067002  0.85933343    -0.25800
C1085       C  0.58749039  0.83915660  0.85045224     0.36200
C1086       C  0.61960613  0.85069043  0.85623344    -0.19800
C1087       C  0.63222770  0.87282528  0.87109689    -0.25100
C1088       C  0.61379884  0.88414022  0.87999438     0.27600
H1089       H  0.54458218  0.84188367  0.85501547     0.13400
N1090       N  0.57331741  0.81550611  0.83584088    -0.82300
H1091       H  0.65676046  0.88176757  0.87563568     0.18200
N1092       N  0.62720198  0.90713306  0.89498361    -0.80900
H1093       H  0.54981888  0.81024647  0.83307816     0.33800
H1094       H  0.57169626  0.79425732  0.84080958     0.38300
H1095       H  0.65079684  0.91276132  0.89779788     0.33800
H1096       H  0.62831540  0.92835716  0.89042410     0.30500
H1097       H  0.54667549  0.92010377  0.84754791     0.33800
H1098       H  0.58255948  0.92390399  0.85241785     0.30500
H1099       H  0.49944323  0.86111718  0.93021313     0.38400
H1100       H  0.53531461  0.86527190  0.93553854     0.33900
C1101       C  0.50511093  0.07459203  0.09716935    -0.19900
C1102       C  0.51519939  0.10723894  0.10037561     0.36300
C1103       C  0.49378684  0.11547177  0.10858731    -0.25900
C1104       C  0.46271927  0.09167477  0.11375073     0.02800
C1105       C  0.45297544  0.05898650  0.11099229     0.27600
C1106       C  0.47418960  0.05078125  0.10248318    -0.25000
N1107       N  0.54686554  0.13182963  0.09495282    -0.82400
H1108       H  0.50109993  0.14055666  0.11067939     0.13400
C1109       C  0.44044524  0.10141503  0.12169387     0.02700
N1110       N  0.42168691  0.03435349  0.11694839    -0.81000
H1111       H  0.46674287  0.02572917  0.10009197     0.18200
C1112       C  0.41124585  0.09214101  0.11256990    -0.25800
C1113       C  0.38955378  0.10113761  0.11953929     0.36200
C1114       C  0.39768612  0.12048996  0.13582731    -0.19800
C1115       C  0.42703635  0.12964752  0.14489072    -0.25100
C1116       C  0.44835214  0.12015203  0.13807754     0.27600
H1117       H  0.40539217  0.07778073  0.09993157     0.13400
N1118       N  0.35938770  0.09047434  0.11018013    -0.82300
H1119       H  0.43355823  0.14442882  0.15737104     0.18200
N1120       N  0.47795060  0.12932768  0.14776467    -0.80900
H1121       H  0.35768454  0.07720040  0.09819266     0.33800
H1122       H  0.34123846  0.07469872  0.11923030     0.38300
H1123       H  0.48027554  0.14331070  0.15952482     0.33800
H1124       H  0.47688806  0.10833067  0.15272174     0.30500
H1125       H  0.41828421  0.01156984  0.11388623     0.33800
H1126       H  0.42081300  0.03576391  0.13153555     0.30500
H1127       H  0.54832886  0.13115660  0.08036086     0.38400
H1128       H  0.55053177  0.15458603  0.09837970     0.33900
C1129       C  0.60773663  0.07246687  0.09424049    -0.19900
C1130       C  0.63162209  0.10495147  0.09637268     0.36300
C1131       C  0.66165075  0.11242429  0.10370569    -0.25900
C1132       C  0.66800178  0.08801613  0.10888370     0.02800
C1133       C  0.64419616  0.05555325  0.10677431     0.27600
C1134       C  0.61419838  0.04803823  0.09932085    -0.25000
N1135       N  0.62527149  0.13009812  0.09098173    -0.82400
H1136       H  0.68015070  0.13731773  0.10550541     0.13400
C1137       C  0.69935303  0.09700619  0.11729450     0.02700
N1138       N  0.65050538  0.03051915  0.11246792    -0.81000
H1139       H  0.59567473  0.02312928  0.09762475     0.18200
C1140       C  0.70219667  0.09862891  0.13680034    -0.25800
C1141       C  0.73195028  0.10892429  0.14548202     0.36200
C1142       C  0.75949838  0.11809677  0.13429161    -0.19800
C1143       C  0.75626554  0.11550160  0.11468937    -0.25100
C1144       C  0.72636396  0.10509025  0.10606896     0.27600
H1145       H  0.68110329  0.09211750  0.14525184     0.13400
N1146       N  0.73419734  0.11003175  0.16559135    -0.82300
H1147       H  0.77724172  0.12244620  0.10605466     0.18200
N1148       N  0.72336985  0.10337890  0.08600147    -0.80900
H1149       H  0.71185324  0.10301188  0.17163598     0.33800
H1150       H  0.74057808  0.09309557  0.16977152     0.38300
H1151       H  0.74559712  0.11052318  0.07976340     0.33800
H1152       H  0.70835511  0.07927735  0.08237754     0.30500
H1153       H  0.63030074  0.00793402  0.11021314     0.33800
H1154       H  0.66865173  0.03178143  0.10384212     0.30500
H1155       H  0.62144863  0.12845395  0.07649991     0.38400
H1156       H  0.64532692  0.15265595  0.09353970     0.33900
C1157       C  0.49021722  0.95012813  0.95312846    -0.19900
C1158       C  0.48946848  0.97874348  0.95605225     0.36300
C1159       C  0.49672132  0.99314312  0.97379791    -0.25900
C1160       C  0.50470328  0.97935334  0.98865566     0.02800
C1161       C  0.50560094  0.95079518  0.98581587     0.27600
C1162       C  0.49831175  0.93640537  0.96802941    -0.25000
N1163       N  0.48216586  0.99363910  0.94091558    -0.82400
H1164       H  0.49628478  0.01525156  0.97598622     0.13400
C1165       C  0.51277886  0.99543051  0.00706218     0.02700
N1166       N  0.51411713  0.93674641  0.00097427    -0.81000
H1167       H  0.49888050  0.91438597  0.96575327     0.18200
C1168       C  0.49151976  0.98118414  0.02206402    -0.25800
C1169       C  0.49882206  0.99544655  0.03989232     0.36200
C1170       C  0.52795770  0.02444511  0.04261919    -0.19800
C1171       C  0.54909280  0.03873340  0.02752759    -0.25100
C1172       C  0.54176673  0.02446483  0.00972682     0.27600
H1173       H  0.46930506  0.95880148  0.01983391     0.13400
N1174       N  0.47708278  0.98043499  0.05527135    -0.82300
H1175       H  0.57135741  0.06110392  0.02967592     0.18200
N1176       N  0.56365176  0.03913031  0.99436843    -0.80900
H1177       H  0.45671596  0.95932351  0.05087290     0.33800
H1178       H  0.48868952  0.97367444  0.06514674     0.38300
H1179       H  0.58376316  0.06052910  0.99864083     0.33800
H1180       H  0.57194291  0.02356323  0.99042430     0.30500
H1181       H  0.51348395  0.91567668  0.99657683     0.33800
H1182       H  0.53792173  0.95290348  0.00466461     0.30500
H1183       H  0.46220864  0.99555561  0.94474933     0.38400
H1184       H  0.50162817  0.01686819  0.93917271     0.33900
C1185       C  0.09004096  0.79014554  0.80380345    -0.19900
C1186       C  0.07347912  0.80725763  0.80646317     0.36300
C1187       C  0.04291471  0.79545412  0.79852627    -0.25900
C1188       C  0.02891449  0.76732384  0.78779519     0.02800
C1189       C  0.04541781  0.75038182  0.78489645     0.27600
C1190       C  0.07601384  0.76208429  0.79285739    -0.25000
N1191       N  0.08800118  0.83686552  0.81686426    -0.82400
H1192       H  0.03005757  0.80842734  0.80047967     0.13400
C1193       C  0.99704256  0.75625251  0.77942904     0.02700
N1194       N  0.03090729  0.72134466  0.77398029    -0.81000
H1195       H  0.08867614  0.74894353  0.79082745     0.18200
C1196       C  0.99489053  0.76167256  0.76034411    -0.25800
C1197       C  0.96509831  0.75271794  0.75203830     0.36200
C1198       C  0.93699083  0.73751631  0.76306321    -0.19800
C1199       C  0.93930699  0.73220990  0.78220400    -0.25100
C1200       C  0.96914440  0.74143572  0.79050723     0.27600
H1201       H  0.01661741  0.77345385  0.75202961     0.13400
N1202       N  0.96332379  0.75955048  0.73259722    -0.82300
H1203       H  0.91770058  0.72047080  0.79062175     0.18200
N1204       N  0.97133474  0.73587250  0.81010630    -0.80900
H1205       H  0.98615546  0.77080309  0.72652625     0.33800
H1206       H  0.95510628  0.77598881  0.73194300     0.38300
H1207       H  0.94860240  0.72493135  0.81629782     0.33800
H1208       H  0.97962440  0.71953348  0.81120615     0.30500
H1209       H  0.04623389  0.71181536  0.77313390     0.33800
H1210       H  0.01038946  0.70440955  0.78111235     0.30500
H1211       H  0.10826701  0.85354469  0.80943473     0.38400
H1212       H  0.07255823  0.84627724  0.81755580     0.33900
C1213       C  0.21073864  0.90906361  0.80166419    -0.19900
C1214       C  0.23012352  0.91797283  0.78536620     0.36300
C1215       C  0.23893710  0.94744042  0.77662262    -0.25900
C1216       C  0.22952746  0.96849147  0.78398932     0.02800
C1217       C  0.21087153  0.96008906  0.80040924     0.27600
C1218       C  0.20146982  0.93040577  0.80898200    -0.25000
N1219       N  0.24106315  0.89738780  0.77778771    -0.82400
H1220       H  0.25336728  0.95416441  0.76400360     0.13400
C1221       C  0.23945265  0.99935403  0.77436597     0.02700
N1222       N  0.20174999  0.98186522  0.80836150    -0.81000
H1223       H  0.18673025  0.92395066  0.82145738     0.18200
C1224       C  0.21581469  0.00570538  0.76751755    -0.25800
C1225       C  0.22428699  0.03489044  0.75855458     0.36200
C1226       C  0.25700718  0.05799563  0.75641811    -0.19800
C1227       C  0.28065680  0.05142634  0.76291787    -0.25100
C1228       C  0.27219384  0.02238397  0.77206837     0.27600
H1229       H  0.19070773  0.98777213  0.76916139     0.13400
N1230       N  0.19991106  0.04119204  0.75155509    -0.82300
H1231       H  0.30575393  0.06940929  0.76128975     0.18200
N1232       N  0.29661125  0.01639423  0.77935999    -0.80900
H1233       H  0.17704503  0.02177508  0.75431107     0.33800
H1234       H  0.20223484  0.04317347  0.73698066     0.38300
H1235       H  0.31946085  0.03574095  0.77648600     0.33800
H1236       H  0.29428628  0.01491333  0.79394453     0.30500
H1237       H  0.18789764  0.97201190  0.82040845     0.33800
H1238       H  0.22275559  0.00248056  0.81262060     0.30500
H1239       H  0.25695685  0.89661254  0.78750966     0.38400
H1240       H  0.25425553  0.90717693  0.76551960     0.33900
C1241       C  0.10807472  0.58803988  0.89986223    -0.19900
C1242       C  0.09445951  0.58787683  0.88234776     0.36300
C1243       C  0.10206335  0.61703217  0.87374890    -0.25900
C1244       C  0.12292583  0.64636647  0.88243586     0.02800
C1245       C  0.13633739  0.64669864  0.90005791     0.27600
C1246       C  0.12861305  0.61743314  0.90867448    -0.25000
N1247       N  0.07235956  0.55815164  0.87347769    -0.82400
H1248       H  0.09158156  0.61681353  0.86025404     0.13400
C1249       C  0.13114725  0.67659410  0.87267576     0.02700
N1250       N  0.15802126  0.67672441  0.90895406    -0.81000
H1251       H  0.13906308  0.61750007  0.92215132     0.18200
C1252       C  0.12102239  0.69699084  0.88016033    -0.25800
C1253       C  0.12847249  0.72597907  0.87123060     0.36200
C1254       C  0.14706389  0.73493362  0.85461656    -0.19800
C1255       C  0.15677347  0.71403133  0.84712346    -0.25100
C1256       C  0.14905586  0.68502562  0.85600182     0.27600
H1257       H  0.10696931  0.69003287  0.89292872     0.13400
N1258       N  0.11702030  0.74604826  0.87894395    -0.82300
H1259       H  0.17101223  0.72055007  0.83444398     0.18200
N1260       N  0.15967091  0.66423797  0.84831828    -0.80900
H1261       H  0.10447365  0.73628153  0.89140579     0.33800
H1262       H  0.10044795  0.74607065  0.86944818     0.38300
H1263       H  0.17247079  0.67383033  0.83591081     0.33800
H1264       H  0.17572572  0.66338450  0.85788133     0.30500
H1265       H  0.16565718  0.67274482  0.92189588     0.33800
H1266       H  0.17846692  0.68847477  0.90053367     0.30500
H1267       H  0.08153059  0.55759080  0.86029899     0.38400
H1268       H  0.05066485  0.55785782  0.87148200     0.33900
C1269       C  0.41605473  0.90030062  0.89850140    -0.19900
C1270       C  0.39707300  0.86926682  0.89086842     0.36300
C1271       C  0.36843712  0.86143867  0.88153604    -0.25900
C1272       C  0.35813277  0.88394493  0.87975722     0.02800
C1273       C  0.37678113  0.91488607  0.88757547     0.27600
C1274       C  0.40553369  0.92272083  0.89690469    -0.25000
N1275       N  0.40628661  0.84531034  0.89302168    -0.82400
H1276       H  0.35385299  0.83741998  0.87591845     0.13400
C1277       C  0.32716189  0.87429402  0.87027617     0.02700
N1278       N  0.36655256  0.93825041  0.88586929    -0.81000
H1279       H  0.42009460  0.94661665  0.90267924     0.18200
C1280       C  0.30290759  0.87581562  0.88023940    -0.25800
C1281       C  0.27269994  0.86570318  0.87217409     0.36200
C1282       C  0.26665272  0.85400332  0.85348843    -0.19800
C1283       C  0.29119943  0.85263165  0.84354447    -0.25100
C1284       C  0.32135561  0.86268963  0.85172580     0.27600
H1285       H  0.30737870  0.88427615  0.89460200     0.13400
N1286       N  0.24821228  0.86693432  0.88308410    -0.82300
H1287       H  0.28697203  0.84379521  0.82926936     0.18200
N1288       N  0.34617731  0.86131596  0.84126298    -0.80900
H1289       H  0.25721473  0.87764191  0.89611531     0.33800
H1290       H  0.23043909  0.84324101  0.88585120     0.38300
H1291       H  0.33801800  0.85201507  0.82785587     0.33800
H1292       H  0.36497147  0.88488851  0.83947208     0.30500
H1293       H  0.38283205  0.95971958  0.89250194     0.33800
H1294       H  0.36683760  0.94352908  0.87163351     0.30500
H1295       H  0.38785277  0.82567949  0.90006095     0.38400
H1296       H  0.40841794  0.83762713  0.87966841     0.33900
C1297       C  0.42594860  0.46282207  0.47098883    -0.19900
C1298       C  0.41435726  0.44098294  0.45576215     0.36300
C1299       C  0.38551725  0.43421609  0.44695880    -0.25900
C1300       C  0.36774948  0.44819195  0.45324535     0.02800
C1301       C  0.37878726  0.46949550  0.46853610     0.27600
C1302       C  0.40777207  0.47658004  0.47729887    -0.25000
N1303       N  0.43153449  0.42538347  0.44942365    -0.82400
H1304       H  0.37654254  0.41760728  0.43526516     0.13400
C1305       C  0.33736223  0.43992075  0.44369094     0.02700
N1306       N  0.36058855  0.48394757  0.47497667    -0.81000
H1307       H  0.41642988  0.49334460  0.48891260     0.18200
C1308       C  0.30822660  0.41861041  0.45235271    -0.25800
C1309       C  0.27886480  0.40907831  0.44329998     0.36200
C1310       C  0.27887906  0.42148441  0.42537024    -0.19800
C1311       C  0.30810670  0.44286287  0.41675065    -0.25100
C1312       C  0.33743777  0.45235271  0.42581209     0.27600
H1313       H  0.30850135  0.40902840  0.46605973     0.13400
N1314       N  0.24909278  0.38648699  0.45205078    -0.82300
H1315       H  0.30795391  0.45243555  0.40302092     0.18200
N1316       N  0.36730963  0.47454923  0.41701068    -0.80900
H1317       H  0.25330299  0.37970239  0.46520441     0.33800
H1318       H  0.23847952  0.36572264  0.44379946     0.38300
H1319       H  0.36318798  0.48134390  0.40383709     0.33800
H1320       H  0.37819472  0.49538308  0.42519793     0.30500
H1321       H  0.37192470  0.49897074  0.48643699     0.33800
H1322       H  0.36038786  0.49862880  0.46421533     0.30500
H1323       H  0.43078055  0.41026147  0.46019681     0.38400
H1324       H  0.42001019  0.41059013  0.43790685     0.33900
C1325       C  0.43805688  0.25234181  0.56385792    -0.19900
C1326       C  0.47001105  0.27714772  0.56166496     0.36300
C1327       C  0.47635689  0.30620096  0.55339585    -0.25900
C1328       C  0.45118078  0.31071893  0.54719699     0.02800
C1329       C  0.41912657  0.28576922  0.54922110     0.27600
C1330       C  0.41286340  0.25676156  0.55762628    -0.25000
N1331       N  0.49595452  0.27306294  0.56815514    -0.82400
H1332       H  0.50101523  0.32532942  0.55179734     0.13400
C1333       C  0.45883429  0.34178386  0.53865953     0.02700
N1334       N  0.39317656  0.29014226  0.54286962    -0.81000
H1335       H  0.38829841  0.23749661  0.55933488     0.18200
C1336       C  0.45160240  0.34274504  0.51971949    -0.25800
C1337       C  0.46006934  0.37207145  0.51090871     0.36200
C1338       C  0.47612874  0.40085723  0.52131301    -0.19800
C1339       C  0.48224847  0.39970224  0.54043722    -0.25100
C1340       C  0.47386238  0.37039202  0.54921552     0.27600
H1341       H  0.43977712  0.32058415  0.51175439     0.13400
N1342       N  0.45239673  0.37276787  0.49149699    -0.82300
H1343       H  0.49452314  0.42184107  0.54839888     0.18200
N1344       N  0.48083441  0.36951032  0.56873116    -0.80900
H1345       H  0.44065991  0.34955229  0.48588715     0.33800
H1346       H  0.43610579  0.38116163  0.49084098     0.38300
H1347       H  0.49219815  0.39265512  0.57444016     0.33800
H1348       H  0.45894136  0.35643952  0.57573350     0.30500
H1349       H  0.37109626  0.26939126  0.54528013     0.33800
H1350       H  0.39337618  0.30836178  0.55097923     0.30500
H1351       H  0.50913578  0.29110235  0.57796285     0.38400
H1352       H  0.51094259  0.27634415  0.55676532     0.33900
C1353       C  0.59996358  0.51797368  0.52176479    -0.19900
C1354       C  0.62763502  0.52472373  0.51131730     0.36300
C1355       C  0.65659821  0.53392415  0.52076710    -0.29500
C1356       C  0.65858766  0.53706913  0.54030211     0.02800
C1357       C  0.63129000  0.53089119  0.55073107     0.27600
C1358       C  0.60226336  0.52152135  0.54135567    -0.25000
N1359       N  0.62646450  0.52277958  0.49120194    -0.82400
H1360       H  0.67786694  0.53897397  0.51288616     0.13400
C1361       C  0.68934995  0.54622676  0.54970845     0.02700
N1362       N  0.63312382  0.53376568  0.57080556    -0.81000
H1363       H  0.58118905  0.51641031  0.54944965     0.18200
C1364       C  0.70628771  0.57617426  0.55861087    -0.25800
C1365       C  0.73582147  0.58571985  0.56750315     0.36200
C1366       C  0.74810393  0.56443111  0.56781647    -0.19800
C1367       C  0.73087553  0.53440228  0.55891122    -0.25100
C1368       C  0.70171514  0.52515958  0.54978590     0.27600
H1369       H  0.69662682  0.59229142  0.55833021     0.13400
N1370       N  0.75360489  0.61707497  0.57584050    -0.82300
H1371       H  0.74003693  0.51787462  0.55928042     0.18200
N1372       N  0.68444456  0.49439203  0.54069510    -0.80900
H1373       H  0.74117734  0.62965634  0.57439035     0.33800
H1374       H  0.77502241  0.62993698  0.56835685     0.38300
H1375       H  0.69696995  0.48186952  0.54188009     0.33800
H1376       H  0.66274773  0.48087497  0.54782377     0.30500
H1377       H  0.61093818  0.52853510  0.57638718     0.33800
H1378       H  0.63808456  0.51633763  0.57599344     0.30500
H1379       H  0.62192980  0.54063292  0.48625291     0.38400
H1380       H  0.64876540  0.52807865  0.48576950     0.33900
C1381       C  0.55149572  0.57846828  0.47188187    -0.19900
C1382       C  0.56180185  0.60679097  0.48252935     0.36300
C1383       C  0.57219802  0.63609199  0.47323753    -0.25900
C1384       C  0.57299807  0.63761542  0.45365775     0.02800
C1385       C  0.56403285  0.60978202  0.44300116     0.27600
C1386       C  0.55354135  0.58043503  0.45223429    -0.25000
N1387       N  0.56179856  0.60576828  0.50266343    -0.82400
H1388       H  0.57941269  0.65782620  0.48124337     0.13400
C1389       C  0.58117780  0.66815332  0.44445950     0.02700
N1390       N  0.56493537  0.61138492  0.42287513    -0.81000
H1391       H  0.54586895  0.55883819  0.44401541     0.18200
C1392       C  0.61129230  0.68641794  0.43605788    -0.25800
C1393       C  0.61941458  0.71543154  0.42705844     0.36200
C1394       C  0.59681835  0.72598965  0.42620677    -0.19800
C1395       C  0.56671083  0.70758375  0.43473942    -0.25100
C1396       C  0.55868102  0.67873744  0.44389425     0.27600
H1397       H  0.62859700  0.67823635  0.43663985     0.13400
N1398       N  0.65082826  0.73445551  0.41922699    -0.82300
H1399       H  0.54920666  0.71548669  0.43398949     0.18200
N1400       N  0.52774891  0.65998638  0.45253996    -0.80900
H1401       H  0.66765540  0.73995335  0.42993320     0.33800
H1402       H  0.65424901  0.72049465  0.40926462     0.38300
H1403       H  0.51411145  0.67130862  0.45103705     0.33800
H1404       H  0.51551805  0.63818293  0.44530744     0.30500
H1405       H  0.55772578  0.58876051  0.41712362     0.33800
H1406       H  0.54808268  0.61775665  0.41852581     0.30500
H1407       H  0.57846104  0.59897146  0.50674261     0.38400
H1408       H  0.56981190  0.62864684  0.50827737     0.33900
C1409       C  0.26617641  0.37541899  0.85207963    -0.19900
C1410       C  0.27907162  0.36247216  0.86498290     0.36300
C1411       C  0.30890803  0.38281900  0.87339117    -0.25900
C1412       C  0.32626785  0.41554330  0.86892010     0.02800
C1413       C  0.31366633  0.42851688  0.85599605     0.27600
C1414       C  0.28376284  0.40827555  0.84761648    -0.25000
N1415       N  0.26225689  0.32867112  0.86918198    -0.82400
H1416       H  0.31905592  0.37305591  0.88319614     0.13400
C1417       C  0.35827471  0.43568210  0.87736970     0.02700
N1418       N  0.33126715  0.46219734  0.85154738    -0.81000
H1419       H  0.27390716  0.41830661  0.83780079     0.18200
C1420       C  0.38551485  0.44631994  0.86607593    -0.25800
C1421       C  0.41646358  0.46462388  0.87364038     0.36200
C1422       C  0.42008042  0.47291796  0.89283381    -0.19800
C1423       C  0.39266762  0.46209602  0.90412410    -0.25100
C1424       C  0.36173451  0.44351174  0.89655603     0.27600
H1425       H  0.38254263  0.43982098  0.85137091     0.13400
N1426       N  0.44420156  0.47435727  0.86200473    -0.82300
H1427       H  0.39542057  0.46866380  0.91881338     0.18200
N1428       N  0.33381694  0.43271294  0.90818203    -0.80900
H1429       H  0.43734537  0.46632756  0.84825252     0.33800
H1430       H  0.45640828  0.46298338  0.86707537     0.38300
H1431       H  0.34051327  0.44041028  0.92199884     0.33800
H1432       H  0.32112189  0.44372266  0.90333616     0.30500
H1433       H  0.31873429  0.46791632  0.84173085     0.33800
H1434       H  0.33276949  0.47488971  0.86376367     0.30500
H1435       H  0.26145564  0.31643854  0.85689242     0.38400
H1436       H  0.27495046  0.32321028  0.87902646     0.33900
C1437       C  0.62441102  0.73179351  0.85519244    -0.19900
C1438       C  0.63133443  0.72378398  0.87306881     0.36300
C1439       C  0.61259529  0.69225673  0.87984552    -0.25900
C1440       C  0.58683678  0.66886632  0.86940060     0.02800
C1441       C  0.57983271  0.67665195  0.85167853     0.27600
C1442       C  0.59862380  0.70794197  0.84476865    -0.25000
N1443       N  0.65700527  0.74748881  0.88439380    -0.82400
H1444       H  0.61750287  0.68604957  0.89357974     0.13400
C1445       C  0.56609559  0.63675801  0.87762071     0.02700
N1446       N  0.55360579  0.65266076  0.84078918    -0.81000
H1447       H  0.59300758  0.71358721  0.83108028     0.18200
C1448       C  0.53402327  0.62726997  0.88147433    -0.25800
C1449       C  0.51340016  0.59716263  0.88929477     0.36200
C1450       C  0.52485441  0.57588217  0.89318916    -0.19800
C1451       C  0.55713019  0.58552551  0.88954573    -0.25100
C1452       C  0.57791755  0.61584008  0.88171525     0.27600
H1453       H  0.52505035  0.64353625  0.87858348     0.13400
N1454       N  0.48106145  0.58863503  0.89376606    -0.82300
H1455       H  0.56595231  0.56919402  0.89258945     0.18200
N1456       N  0.61080303  0.62539964  0.87776585    -0.80900
H1457       H  0.46984551  0.58975021  0.88145428     0.33800
H1458       H  0.48181734  0.60579992  0.90307791     0.38300
H1459       H  0.61569383  0.60728845  0.88166820     0.33800
H1460       H  0.61392135  0.62805713  0.86325151     0.30500
H1461       H  0.55142772  0.66231028  0.82810352     0.33800
H1462       H  0.55911986  0.63478470  0.83741596     0.30500
H1463       H  0.65032489  0.76415964  0.88862933     0.38400
H1464       H  0.65967866  0.73714163  0.89666652     0.33900
C1465       C  0.60842013  0.49647674  0.09257454    -0.19900
C1466       C  0.61645779  0.52729361  0.09909647     0.36300
C1467       C  0.64619445  0.54630251  0.10802871    -0.25900
C1468       C  0.66816802  0.53529850  0.11017472     0.02800
C1469       C  0.66004933  0.50448487  0.10348050     0.27600
C1470       C  0.63008730  0.48527590  0.09495261    -0.25000
N1471       N  0.59404508  0.53868194  0.09718922    -0.82400
H1472       H  0.65224307  0.56974519  0.11343056     0.13400
C1473       C  0.69942814  0.55607726  0.11962806     0.02700
N1474       N  0.68240407  0.49298396  0.10518388    -0.81000
H1475       H  0.62371067  0.46156443  0.08984788     0.18200
C1476       C  0.70825501  0.54394179  0.13499454    -0.25800
C1477       C  0.73787609  0.56242587  0.14408225     0.36200
C1478       C  0.75858217  0.59445385  0.13823581    -0.19800
C1479       C  0.74971874  0.60651738  0.12278150    -0.25100
C1480       C  0.72056732  0.58756203  0.11329359     0.27600
H1481       H  0.69201470  0.51972328  0.13981190     0.13400
N1482       N  0.74713796  0.54849543  0.15895511    -0.82300
H1483       H  0.76557128  0.63088800  0.11806269     0.18200
N1484       N  0.71247229  0.60003372  0.09715431    -0.80900
H1485       H  0.72902466  0.52489882  0.16161145     0.33800
H1486       H  0.76702229  0.54709831  0.15429646     0.38300
H1487       H  0.73054213  0.62359097  0.09434907     0.33800
H1488       H  0.71147564  0.58618696  0.08560226     0.30500
H1489       H  0.67263280  0.46979542  0.09967052     0.33800
H1490       H  0.70244699  0.50783727  0.09700202     0.30500
H1491       H  0.59172987  0.54197481  0.08292165     0.38400
H1492       H  0.60316672  0.56127655  0.10343854     0.33900
C1493       C  0.50541506  0.39282880  0.09121722    -0.19900
C1494       C  0.50371301  0.36424033  0.08486061     0.36300
C1495       C  0.48308511  0.33514292  0.09391897    -0.25900
C1496       C  0.46391115  0.33407974  0.10901160     0.02800
C1497       C  0.46569875  0.36274579  0.11538948     0.27600
C1498       C  0.48672667  0.39195581  0.10650621    -0.25000
N1499       N  0.52367234  0.36505020  0.06964364    -0.82400
H1500       H  0.48193282  0.31313446  0.08922838     0.13400
C1501       C  0.44194387  0.30266959  0.11788015     0.02700
N1502       N  0.44595149  0.36197870  0.13071097    -0.81000
H1503       H  0.48835558  0.41410028  0.11136245     0.18200
C1504       C  0.44552768  0.29808279  0.13692750    -0.25800
C1505       C  0.42521492  0.26862390  0.14580969     0.36200
C1506       C  0.40097218  0.24288852  0.13525207    -0.19800
C1507       C  0.39762489  0.24772404  0.11612260    -0.25100
C1508       C  0.41770706  0.27730929  0.10737787     0.27600
H1509       H  0.46430782  0.31767086  0.14489887     0.13400
N1510       N  0.42917704  0.26501261  0.16547231    -0.82300
H1511       H  0.37926097  0.22831217  0.10786246     0.18200
N1512       N  0.41350961  0.28179887  0.08787074    -0.80900
H1513       H  0.44878279  0.28579200  0.17088483     0.33800
H1514       H  0.40886260  0.26253951  0.17233445     0.38300
H1515       H  0.39477387  0.26075029  0.08209600     0.33800
H1516       H  0.40661628  0.29924517  0.08697914     0.30500
H1517       H  0.45023734  0.38510420  0.13370211     0.33800
H1518       H  0.42200751  0.34857345  0.12639765     0.30500
H1519       H  0.51577048  0.37110852  0.05748103     0.38400
H1520       H  0.52060605  0.34219586  0.06730446     0.33900
C1521       C  0.53767651  0.46681579  0.03620038    -0.19900
C1522       C  0.53422479  0.44601697  0.02129387     0.36300
C1523       C  0.52765578  0.45273075  0.00317941    -0.25900
C1524       C  0.52467185  0.47986987  0.99973506     0.02800
C1525       C  0.52893779  0.50108978  0.01455633     0.27600
C1526       C  0.53545307  0.49435328  0.03266393    -0.25000
N1527       N  0.53747542  0.41825586  0.02463909    -0.82400
H1528       H  0.52440336  0.43654815  0.99173793     0.13400
C1529       C  0.51588475  0.48525852  0.98070887     0.02700
N1530       N  0.52646787  0.52927820  0.01112547    -0.81000
H1531       H  0.53834831  0.51035622  0.04414159     0.18200
C1532       C  0.48706727  0.48551161  0.97830207    -0.25800
C1533       C  0.47819491  0.49166394  0.96071904     0.36200
C1534       C  0.49839085  0.49719388  0.94515994    -0.19800
C1535       C  0.52703818  0.49650191  0.94749607    -0.25100
C1536       C  0.53600803  0.49055156  0.96515751     0.27600
H1537       H  0.47164412  0.48127431  0.99029169     0.13400
N1538       N  0.44915259  0.49306018  0.95868320    -0.82300
H1539       H  0.54250368  0.50084306  0.93551447     0.18200
N1540       N  0.56558812  0.49028841  0.96743562    -0.80900
H1541       H  0.43700331  0.48832813  0.97146060     0.33800
H1542       H  0.45565089  0.51662020  0.95502183     0.38300
H1543       H  0.57750277  0.49442191  0.95460117     0.33800
H1544       H  0.58046804  0.50949654  0.97617591     0.30500
H1545       H  0.52998858  0.54223815  0.02352628     0.33800
H1546       H  0.54513596  0.54416375  0.00209897     0.30500
H1547       H  0.56108955  0.42639339  0.02897452     0.38400
H1548       H  0.53418674  0.40542990  0.01221895     0.33900
loop_ 
_geom_bond_atom_site_label_1 
_geom_bond_atom_site_label_2 
_geom_bond_distance 
_geom_bond_site_symmetry_2 
_ccdc_geom_bond_type 
C1            C2   1.402       .  A
C1            C6   1.403       .  A
C1         C1465   1.475       .  S
C2            C3   1.400       .  A
C2            H7   1.084       .  S
C3            C4   1.402       .  A
C3         C1493   1.475       .  S
C4            C5   1.404       .  A
C4            H8   1.084       .  S
C5            C6   1.403       .  A
C5         C1521   1.479       .  S
C6            H9   1.084       .  S
C10          C11   1.402       .  A
C10          C15   1.402       .  A
C10        C1450   1.480       .  S
C11          C12   1.402       .  A
C11          H16   1.084       .  S
C12          C13   1.403       .  A
C12        C1422   1.483       .  S
C13          C14   1.404       .  A
C13          H17   1.084       .  S
C14          C15   1.403       .  A
C14        C1534   1.480       .  S
C15          H18   1.084       .  S
O19         Cu27   2.000       .  S
O19          C29   1.277       .  A
O20         Cu27   1.997       .  S
O20          C30   1.277       .  A
O21         Cu27   2.006       .  S
O21          C31   1.278       .  A
O22         Cu27   2.001       .  S
O22          C32   1.277       .  A
O23         Cu28   2.008       .  S
O23          C32   1.278       .  A
O24         Cu28   1.999       .  S
O24          C31   1.277       .  A
O25         Cu28   2.003       .  S
O25          C30   1.278       .  A
O26         Cu28   2.006       .  S
O26          C29   1.278       .  A
Cu27        Cu28   2.371       .  S
C29        C1338   1.473       .  S
C30        C1381   1.477       .  S
C31        C1353   1.481       .  S
C32        C1297   1.484       .  S
O33         Cu41   1.994       .  S
O33          C43   1.275       .  A
O34         Cu41   1.995       .  S
O34          C44   1.276       .  A
O35         Cu41   2.007       .  S
O35          C45   1.278       .  A
O36         Cu41   2.003       .  S
O36          C46   1.278       .  A
O37         Cu42   2.002       .  S
O37          C46   1.277       .  A
O38         Cu42   1.997       .  S
O38          C45   1.277       .  A
O39         Cu42   2.013       .  S
O39          C44   1.279       .  A
O40         Cu42   2.016       .  S
O40          C43   1.280       .  A
Cu41        Cu42   2.367       .  S
C43        C1282   1.489       .  S
C44        C1185   1.477       .  S
C45        C1254   1.485       .  S
C46        C1213   1.486       .  S
C47          C48   1.401       .  A
C47          C52   1.400       .  A
C47        C1129   1.473       .  S
C48          C49   1.401       .  A
C48          H53   1.084       .  S
C49          C50   1.401       .  A
C49        C1101   1.474       .  S
C50          C51   1.401       .  A
C50          H54   1.084       .  S
C51          C52   1.401       .  A
C51        C1170   1.476       .  S
C52          H55   1.084       .  S
C56          C57   1.404       .  A
C56          C61   1.403       .  A
C56        C1269   1.483       .  S
C57          C58   1.403       .  A
C57          H62   1.084       .  S
C58          C59   1.401       .  A
C58        C1157   1.477       .  S
C59          C60   1.401       .  A
C59          H63   1.084       .  S
C60          C61   1.402       .  A
C60        C1073   1.480       .  S
C61          H64   1.083       .  S
C65          C66   1.402       .  A
C65          C70   1.400       .  A
C65        C1017   1.477       .  S
C66          C67   1.405       .  A
C66          H71   1.084       .  S
C67          C68   1.403       .  A
C67        C1045   1.482       .  S
C68          C69   1.402       .  A
C68          H72   1.084       .  S
C69          C70   1.399       .  A
C69        C1002   1.476       .  S
C70          H73   1.084       .  S
C74          C75   1.402       .  A
C74          C79   1.399       .  A
C74        C1241   1.477       .  S
C75          C76   1.404       .  A
C75          H80   1.084       .  S
C76          C77   1.406       .  A
C76         C974   1.485       .  S
C77          C78   1.405       .  A
C77          H81   1.083       .  S
C78          C79   1.400       .  A
C78        C1058   1.478       .  S
C79          H82   1.084       .  S
O83         Cu91   1.997       .  S
O83          C93   1.276       .  A
O84         Cu91   1.998       .  S
O84          C94   1.276       .  A
O85         Cu91   2.015       .  S
O85          C95   1.280       .  A
O86         Cu91   2.016       .  S
O86          C96   1.279       .  A
O87         Cu92   1.991       .  S
O87          C96   1.276       .  A
O88         Cu92   1.994       .  S
O88          C95   1.275       .  A
O89         Cu92   2.009       .  S
O89          C94   1.279       .  A
O90         Cu92   2.007       .  S
O90          C93   1.279       .  A
Cu91        Cu92   2.366       .  S
C93         C946   1.485       .  S
C94        C1030   1.489       .  S
C95         C918   1.487       .  S
C96        C1142   1.481       .  S
C97          C98   1.402       .  A
C97         C102   1.401       .  A
C97         C834   1.477       .  S
C98          C99   1.402       .  A
C98         H103   1.084       .  S
C99         C100   1.403       .  A
C99         C890   1.479       .  S
C100        C101   1.403       .  A
C100        H104   1.084       .  S
C101        C102   1.401       .  A
C101        C849   1.478       .  S
C102        H105   1.084       .  S
C106        C107   1.404       .  A
C106        C111   1.401       .  A
C106        C793   1.479       .  S
C107        C108   1.404       .  A
C107        H112   1.084       .  S
C108        C109   1.403       .  A
C108        C877   1.480       .  S
C109        C110   1.402       .  A
C109        H113   1.084       .  S
C110        C111   1.402       .  A
C110        C765   1.482       .  S
C111        H114   1.084       .  S
C115        C116   1.401       .  A
C115        C120   1.401       .  A
C115       C1310   1.477       .  S
C116        C117   1.404       .  A
C116        H121   1.084       .  S
C117        C118   1.405       .  A
C117        C750   1.483       .  S
C118        C119   1.404       .  A
C118        H122   1.084       .  S
C119        C120   1.403       .  A
C119        C709   1.483       .  S
C120        H123   1.084       .  S
C124        C125   1.402       .  A
C124        C129   1.405       .  A
C124        C905   1.484       .  S
C125        C126   1.399       .  A
C125        H130   1.084       .  S
C126        C127   1.402       .  A
C126        C681   1.479       .  S
C127        C128   1.405       .  A
C127        H131   1.084       .  S
C128        C129   1.407       .  A
C128        C737   1.487       .  S
C129        H132   1.083       .  S
O133       Cu141   2.010       .  S
O133        C143   1.278       .  A
O134       Cu141   2.012       .  S
O134        C144   1.278       .  A
O135       Cu141   2.013       .  S
O135        C145   1.280       .  A
O136       Cu141   2.014       .  S
O136        C146   1.278       .  A
O137       Cu142   2.003       .  S
O137        C146   1.278       .  A
O138       Cu142   2.004       .  S
O138        C145   1.277       .  A
O139       Cu142   1.995       .  S
O139        C144   1.277       .  A
O140       Cu142   1.993       .  S
O140        C143   1.277       .  A
Cu141      Cu142   2.366       .  S
C143       C1114   1.484       .  S
C144        C694   1.480       .  S
C145       C1506   1.490       .  S
C146        C806   1.492       .  S
O147       Cu155   2.004       .  S
O147        C157   1.277   1_455  A
O148       Cu155   2.006       .  S
O148        C158   1.277       .  A
O149       Cu155   1.999   1_655  S
O149        C159   1.276       .  A
O150       Cu155   2.009       .  S
O150        C160   1.279       .  A
O151       Cu156   2.006   1_455  S
O151        C160   1.277       .  A
O152       Cu156   2.009       .  S
O152        C159   1.279       .  A
O153       Cu156   2.005   1_455  S
O153        C158   1.277       .  A
O154       Cu156   2.004       .  S
O154        C157   1.278       .  A
Cu155      Cu156   2.368   1_455  S
C157        C653   1.489       .  S
C158        C862   1.474       .  S
C159        C638   1.485       .  S
C160        C722   1.486       .  S
C161        C162   1.402       .  A
C161        C166   1.405       .  A
C161       C1366   1.484       .  S
C162        C163   1.398       .  A
C162        H167   1.084       .  S
C163        C164   1.399       .  A
C163        C625   1.474       .  S
C164        C165   1.404       .  A
C164        H168   1.084       .  S
C165        C166   1.407       .  A
C165        C597   1.485       .  S
C166        H169   1.082       .  S
C170        C171   1.402       .  A
C170        C175   1.403       .  A
C170       C1198   1.479       .  S
C171        C172   1.399       .  A
C171        H176   1.084       .  S
C172        C173   1.400       .  A
C172        C569   1.471       .  S
C173        C174   1.403       .  A
C173        H177   1.084       .  S
C174        C175   1.403       .  A
C174        C610   1.482       .  S
C175        H178   1.083       .  S
O179       Cu187   2.006       .  S
O179        C189   1.278       .  A
O180       Cu187   2.006       .  S
O180        C190   1.277       .  A
O181       Cu187   1.995       .  S
O181        C191   1.276       .  A
O182       Cu187   2.000       .  S
O182        C192   1.278       .  A
O183       Cu188   1.999       .  S
O183        C192   1.277       .  A
O184       Cu188   2.004       .  S
O184        C191   1.278       .  A
O185       Cu188   1.996       .  S
O185        C190   1.278       .  A
O186       Cu188   1.998       .  S
O186        C189   1.276       .  A
Cu187      Cu188   2.370       .  S
C189        C541   1.475       .  S
C190       C1437   1.487       .  S
C191        C582   1.479       .  S
C192       C1086   1.482       .  S
C193        C194   1.402       .  A
C193        C198   1.404       .  A
C193        C666   1.480       .  S
C194        C195   1.402       .  A
C194        H199   1.084       .  S
C195        C196   1.401       .  A
C195        C498   1.477       .  S
C196        C197   1.401       .  A
C196        H200   1.084       .  S
C197        C198   1.402       .  A
C197        C513   1.474       .  S
C198        H201   1.084       .  S
C202        C203   1.400       .  A
C202        C207   1.399       .  A
C202        C457   1.475       .  S
C203        C204   1.402       .  A
C203        H208   1.084       .  S
C204        C205   1.403       .  A
C204        C526   1.477       .  S
C205        C206   1.403       .  A
C205        H209   1.084       .  S
C206        C207   1.402       .  A
C206        C554   1.480       .  S
C207        H210   1.084       .  S
O211       Cu219   2.002       .  S
O211        C221   1.277       .  A
O212       Cu219   2.002       .  S
O212        C222   1.277       .  A
O213       Cu219   2.008       .  S
O213        C223   1.278       .  A
O214       Cu219   2.006       .  S
O214        C224   1.278       .  A
O215       Cu220   2.005       .  S
O215        C224   1.278       .  A
O216       Cu220   2.004       .  S
O216        C223   1.278       .  A
O217       Cu220   2.002       .  S
O217        C222   1.277       .  A
O218       Cu220   1.999       .  S
O218        C221   1.278       .  A
Cu219      Cu220   2.369       .  S
C221        C989   1.484       .  S
C222        C429   1.476       .  S
C223       C1478   1.485       .  S
C224        C778   1.487       .  S
C225        C226   1.402       .  A
C225        C230   1.402       .  A
C225       C1394   1.479       .  S
C226        C227   1.401       .  A
C226        H231   1.084       .  S
C227        C228   1.401       .  A
C227        C401   1.474       .  S
C228        C229   1.400       .  A
C228        H232   1.084       .  S
C229        C230   1.400       .  A
C229        C373   1.475       .  S
C230        H233   1.084       .  S
C234        C235   1.403       .  A
C234        C239   1.403       .  A
C234        C933   1.481       .  S
C235        C236   1.401       .  A
C235        H240   1.084       .  S
C236        C237   1.400       .  A
C236        C414   1.473       .  S
C237        C238   1.401       .  A
C237        H241   1.084       .  S
C238        C239   1.402       .  A
C238        C442   1.479       .  S
C239        H242   1.084       .  S
O243       Cu251   2.000       .  S
O243        C253   1.277   1_565  A
O244       Cu251   2.001       .  S
O244        C254   1.278       .  A
O245       Cu251   1.995   1_545  S
O245        C255   1.277       .  A
O246       Cu251   1.993       .  S
O246        C256   1.277       .  A
O247       Cu252   2.002   1_565  S
O247        C256   1.277       .  A
O248       Cu252   2.002       .  S
O248        C255   1.277       .  A
O249       Cu252   2.002   1_565  S
O249        C254   1.277       .  A
O250       Cu252   2.003       .  S
O250        C253   1.278       .  A
Cu251      Cu252   2.366   1_565  S
C253        C345   1.487       .  S
C254        C386   1.487       .  S
C255        C485   1.477       .  S
C256        C821   1.485       .  S
C257        C258   1.400       .  A
C257        C262   1.400       .  A
C257       C1325   1.473       .  S
C258        C259   1.404       .  A
C258        H263   1.084       .  S
C259        C260   1.405       .  A
C259        C358   1.481       .  S
C260        C261   1.403       .  A
C260        H264   1.084       .  S
C261        C262   1.401       .  A
C261        C317   1.477       .  S
C262        H265   1.084       .  S
C266        C267   1.400       .  A
C266        C271   1.400       .  A
C266       C1226   1.474       .  S
C267        C268   1.404       .  A
C267        H272   1.084       .  S
C268        C269   1.407       .  A
C268        C330   1.484       .  S
C269        C270   1.405       .  A
C269        H273   1.084       .  S
C270        C271   1.401       .  A
C270        C289   1.481       .  S
C271        H274   1.084       .  S
O275       Cu283   2.014       .  S
O275        C285   1.279       .  A
O276       Cu283   2.016       .  S
O276        C286   1.279       .  A
O277       Cu283   1.997       .  S
O277        C287   1.276       .  A
O278       Cu283   1.999       .  S
O278        C288   1.277       .  A
O279       Cu284   2.003       .  S
O279        C288   1.277       .  A
O280       Cu284   2.009       .  S
O280        C287   1.278       .  A
O281       Cu284   2.005       .  S
O281        C286   1.277       .  A
O282       Cu284   2.004       .  S
O282        C285   1.277       .  A
Cu283      Cu284   2.369       .  S
C285        C961   1.488       .  S
C286        C302   1.481       .  S
C287       C1409   1.479       .  S
C288        C470   1.486       .  S
C289        C290   1.412       .  A
C289        C294   1.404       .  A
C290        C291   1.407       .  A
C290        N295   1.438       .  S
C291        C292   1.402       .  A
C291        H296   1.084       .  S
C292        C293   1.408       .  A
C292        C297   1.478       .  S
C293        C294   1.404       .  A
C293        N298   1.438       .  S
C294        H299   1.084       .  S
N295        H315   1.046       .  S
N295        H316   1.046       .  S
C297        C300   1.400       .  A
C297        C304   1.408       .  A
N298        H313   1.046       .  S
N298        H314   1.046       .  S
C300        C301   1.404       .  A
C300        H305   1.084       .  S
C301        C302   1.414       .  A
C301        N306   1.438       .  S
C302        C303   1.406       .  A
C303        C304   1.407       .  A
C303        H307   1.084       .  S
C304        N308   1.437       .  S
N306        H309   1.046       .  S
N306        H310   1.046       .  S
N308        H311   1.046       .  S
N308        H312   1.046       .  S
C317        C318   1.410       .  A
C317        C322   1.403       .  A
C318        C319   1.406       .  A
C318        N323   1.438       .  S
C319        C320   1.403       .  A
C319        H324   1.084       .  S
C320        C321   1.409       .  A
C320        C325   1.479       .  S
C321        C322   1.404       .  A
C321        N326   1.438       .  S
C322        H327   1.084       .  S
N323        H343   1.046       .  S
N323        H344   1.046       .  S
C325        C328   1.401       .  A
C325        C332   1.408       .  A
N326        H341   1.046       .  S
N326        H342   1.046       .  S
C328        C329   1.405       .  A
C328        H333   1.084       .  S
C329        C330   1.413       .  A
C329        N334   1.438       .  S
C330        C331   1.405       .  A
C331        C332   1.405       .  A
C331        H335   1.084       .  S
C332        N336   1.438       .  S
N334        H337   1.046       .  S
N334        H338   1.045       .  S
N336        H339   1.046       .  S
N336        H340   1.046       .  S
C345        C346   1.419       .  A
C345        C350   1.408       .  A
C346        C347   1.404       .  A
C346        N351   1.438       .  S
C347        C348   1.399       .  A
C347        H352   1.084       .  S
C348        C349   1.406       .  A
C348        C353   1.476       .  S
C349        C350   1.403       .  A
C349        N354   1.438       .  S
C350        H355   1.083       .  S
N351        H371   1.046       .  S
N351        H372   1.046       .  S
C353        C356   1.400       .  A
C353        C360   1.409       .  A
N354        H369   1.046       .  S
N354        H370   1.046       .  S
C356        C357   1.400       .  A
C356        H361   1.084       .  S
C357        C358   1.410       .  A
C357        N362   1.433       .  S
C358        C359   1.405       .  A
C359        C360   1.406       .  A
C359        H363   1.084       .  S
C360        N364   1.437       .  S
N362        H365   1.046       .  S
N362        H366   1.046       .  S
N364        H367   1.046       .  S
N364        H368   1.046       .  S
C373        C374   1.411       .  A
C373        C378   1.402       .  A
C374        C375   1.403       .  A
C374        N379   1.438       .  S
C375        C376   1.402       .  A
C375        H380   1.084       .  S
C376        C377   1.411       .  A
C376        C381   1.479       .  S
C377        C378   1.402       .  A
C377        N382   1.438       .  S
C378        H383   1.084       .  S
N379        H399   1.045       .  S
N379        H400   1.046       .  S
C381        C384   1.400       .  A
C381        C388   1.408       .  A
N382        H397   1.046       .  S
N382        H398   1.045       .  S
C384        C385   1.403       .  A
C384        H389   1.084       .  S
C385        C386   1.419       .  A
C385        N390   1.438       .  S
C386        C387   1.408       .  A
C387        C388   1.402       .  A
C387        H391   1.083       .  S
C388        N392   1.438       .  S
N390        H393   1.046       .  S
N390        H394   1.046       .  S
N392        H395   1.046       .  S
N392        H396   1.046       .  S
C401        C402   1.410       .  A
C401        C406   1.402       .  A
C402        C403   1.403       .  A
C402        N407   1.438       .  S
C403        C404   1.402       .  A
C403        H408   1.084       .  S
C404        C405   1.409       .  A
C404        C409   1.476       .  S
C405        C406   1.401       .  A
C405        N410   1.438       .  S
C406        H411   1.084       .  S
N407        H427   1.045       .  S
N407        H428   1.046       .  S
C409        C412   1.402       .  A
C409        C416   1.410       .  A
N410        H425   1.046       .  S
N410        H426   1.046       .  S
C412        C413   1.399       .  A
C412        H417   1.084       .  S
C413        C414   1.407       .  A
C413        N418   1.433       .  S
C414        C415   1.402       .  A
C415        C416   1.403       .  A
C415        H419   1.084       .  S
C416        N420   1.438       .  S
N418        H421   1.046       .  S
N418        H422   1.045       .  S
N420        H423   1.046       .  S
N420        H424   1.046       .  S
C429        C430   1.413       .  A
C429        C434   1.405       .  A
C430        C431   1.404       .  A
C430        N435   1.438       .  S
C431        C432   1.399       .  A
C431        H436   1.084       .  S
C432        C433   1.406       .  A
C432        C437   1.471       .  S
C433        C434   1.402       .  A
C433        N438   1.438       .  S
C434        H439   1.084       .  S
N435        H455   1.046       .  S
N435        H456   1.046       .  S
C437        C440   1.400       .  A
C437        C444   1.407       .  A
N438        H453   1.046       .  S
N438        H454   1.045       .  S
C440        C441   1.404       .  A
C440        H445   1.084       .  S
C441        C442   1.413       .  A
C441        N446   1.438       .  S
C442        C443   1.404       .  A
C443        C444   1.402       .  A
C443        H447   1.084       .  S
C444        N448   1.438       .  S
N446        H449   1.046       .  S
N446        H450   1.045       .  S
N448        H451   1.046       .  S
N448        H452   1.045       .  S
C457        C458   1.410       .  A
C457        C462   1.402       .  A
C458        C459   1.402       .  A
C458        N463   1.438       .  S
C459        C460   1.403       .  A
C459        H464   1.084   1_655  S
C460        C461   1.411       .  A
C460        C465   1.481   1_655  S
C461        C462   1.403       .  A
C461        N466   1.438       .  S
C462        H467   1.084       .  S
N463        H483   1.046       .  S
N463        H484   1.046       .  S
C465        C468   1.401       .  A
C465        C472   1.408       .  A
N466        H481   1.046       .  S
N466        H482   1.046       .  S
C468        C469   1.403       .  A
C468        H473   1.084       .  S
C469        C470   1.417       .  A
C469        N474   1.438       .  S
C470        C471   1.408       .  A
C471        C472   1.403       .  A
C471        H475   1.083       .  S
C472        N476   1.438       .  S
N474        H477   1.046       .  S
N474        H478   1.046       .  S
N476        H479   1.046       .  S
N476        H480   1.046   1_455  S
C485        C486   1.415       .  A
C485        C490   1.406       .  A
C486        C487   1.403       .  A
C486        N491   1.438       .  S
C487        C488   1.400       .  A
C487        H492   1.084       .  S
C488        C489   1.405       .  A
C488        C493   1.471       .  S
C489        C490   1.401       .  A
C489        N494   1.438       .  S
C490        H495   1.083       .  S
N491        H511   1.046       .  S
N491        H512   1.046       .  S
C493        C496   1.400       .  A
C493        C500   1.407       .  A
N494        H509   1.046       .  S
N494        H510   1.046       .  S
C496        C497   1.400       .  A
C496        H501   1.084       .  S
C497        C498   1.410       .  A
C497        N502   1.433       .  S
C498        C499   1.404       .  A
C499        C500   1.402       .  A
C499        H503   1.084       .  S
C500        N504   1.438       .  S
N502        H505   1.045       .  S
N502        H506   1.046       .  S
N504        H507   1.046       .  S
N504        H508   1.046       .  S
C513        C514   1.410       .  A
C513        C518   1.402       .  A
C514        C515   1.402       .  A
C514        N519   1.438       .  S
C515        C516   1.401       .  A
C515        H520   1.084       .  S
C516        C517   1.410       .  A
C516        C521   1.477       .  S
C517        C518   1.405       .  A
C517        N522   1.437       .  S
C518        H523   1.084       .  S
N519        H539   1.046       .  S
N519        H540   1.046       .  S
C521        C524   1.402       .  A
C521        C528   1.409       .  A
N522        H537   1.046       .  S
N522        H538   1.046       .  S
C524        C525   1.404       .  A
C524        H529   1.084       .  S
C525        C526   1.411       .  A
C525        N530   1.438       .  S
C526        C527   1.403       .  A
C527        C528   1.403       .  A
C527        H531   1.084       .  S
C528        N532   1.438       .  S
N530        H533   1.046       .  S
N530        H534   1.046       .  S
N532        H535   1.046       .  S
N532        H536   1.046       .  S
C541        C542   1.413       .  A
C541        C546   1.404       .  A
C542        C543   1.404       .  A
C542        N547   1.438       .  S
C543        C544   1.399       .  A
C543        H548   1.084       .  S
C544        C545   1.407       .  A
C544        C549   1.472       .  S
C545        C546   1.402       .  A
C545        N550   1.438       .  S
C546        H551   1.084       .  S
N547        H567   1.046       .  S
N547        H568   1.046       .  S
C549        C552   1.399   1_565  A
C549        C556   1.407       .  A
N550        H565   1.046       .  S
N550        H566   1.046       .  S
C552        C553   1.402       .  A
C552        H557   1.084       .  S
C553        C554   1.414       .  A
C553        N558   1.438       .  S
C554        C555   1.404       .  A
C555        C556   1.404   1_545  A
C555        H559   1.084       .  S
C556        N560   1.438       .  S
N558        H561   1.046       .  S
N558        H562   1.045       .  S
N560        H563   1.046       .  S
N560        H564   1.045       .  S
C569        C570   1.409       .  A
C569        C574   1.401       .  A
C570        C571   1.404       .  A
C570        N575   1.438       .  S
C571        C572   1.403       .  A
C571        H576   1.084       .  S
C572        C573   1.411       .  A
C572        C577   1.479       .  S
C573        C574   1.403       .  A
C573        N578   1.438       .  S
C574        H579   1.084       .  S
N575        H595   1.045       .  S
N575        H596   1.046       .  S
C577        C580   1.401       .  A
C577        C584   1.409       .  A
N578        H593   1.046       .  S
N578        H594   1.046       .  S
C580        C581   1.403       .  A
C580        H585   1.084       .  S
C581        C582   1.415       .  A
C581        N586   1.438       .  S
C582        C583   1.405       .  A
C583        C584   1.403       .  A
C583        H587   1.084       .  S
C584        N588   1.438       .  S
N586        H589   1.046       .  S
N586        H590   1.046       .  S
N588        H591   1.046       .  S
N588        H592   1.046       .  S
C597        C598   1.415       .  A
C597        C602   1.406       .  A
C598        C599   1.405       .  A
C598        N603   1.438       .  S
C599        C600   1.399       .  A
C599        H604   1.084       .  S
C600        C601   1.407       .  A
C600        C605   1.472       .  S
C601        C602   1.403       .  A
C601        N606   1.438       .  S
C602        H607   1.083       .  S
N603        H623   1.045       .  S
N603        H624   1.046       .  S
C605        C608   1.400       .  A
C605        C612   1.407       .  A
N606        H621   1.046       .  S
N606        H622   1.045       .  S
C608        C609   1.405       .  A
C608        H613   1.084       .  S
C609        C610   1.414       .  A
C609        N614   1.438       .  S
C610        C611   1.404       .  A
C611        C612   1.402       .  A
C611        H615   1.084       .  S
C612        N616   1.438       .  S
N614        H617   1.046       .  S
N614        H618   1.046       .  S
N616        H619   1.046       .  S
N616        H620   1.045       .  S
C625        C626   1.408       .  A
C625        C630   1.403       .  A
C626        C627   1.400       .  A
C626        N631   1.432       .  S
C627        C628   1.400       .  A
C627        H632   1.084       .  S
C628        C629   1.408       .  A
C628        C633   1.473       .  S
C629        C630   1.404       .  A
C629        N634   1.437       .  S
C630        H635   1.084       .  S
N631        H651   1.045       .  S
N631        H652   1.046       .  S
C633        C636   1.398       .  A
C633        C640   1.405       .  A
N634        H649   1.046       .  S
N634        H650   1.046       .  S
C636        C637   1.404       .  A
C636        H641   1.084       .  S
C637        C638   1.418       .  A
C637        N642   1.438       .  S
C638        C639   1.408       .  A
C639        C640   1.403       .  A
C639        H643   1.083       .  S
C640        N644   1.438       .  S
N642        H645   1.046       .  S
N642        H646   1.046   1_655  S
N644        H647   1.046       .  S
N644        H648   1.046       .  S
C653        C654   1.419       .  A
C653        C658   1.408       .  A
C654        C655   1.404       .  A
C654        N659   1.438       .  S
C655        C656   1.401       .  A
C655        H660   1.084       .  S
C656        C657   1.408       .  A
C656        C661   1.482       .  S
C657        C658   1.404       .  A
C657        N662   1.438       .  S
C658        H663   1.083       .  S
N659        H679   1.046   1_655  S
N659        H680   1.046       .  S
C661        C664   1.402       .  A
C661        C668   1.411       .  A
N662        H677   1.046       .  S
N662        H678   1.046       .  S
C664        C665   1.404       .  A
C664        H669   1.084       .  S
C665        C666   1.413       .  A
C665        N670   1.438       .  S
C666        C667   1.402       .  A
C667        C668   1.403       .  A
C667        H671   1.084       .  S
C668        N672   1.438       .  S
N670        H673   1.046       .  S
N670        H674   1.046       .  S
N672        H675   1.046       .  S
N672        H676   1.046       .  S
C681        C682   1.409       .  A
C681        C686   1.405       .  A
C682        C683   1.400       .  A
C682        N687   1.432       .  S
C683        C684   1.401       .  A
C683        H688   1.084       .  S
C684        C685   1.408       .  A
C684        C689   1.475       .  S
C685        C686   1.405       .  A
C685        N690   1.437       .  S
C686        H691   1.084       .  S
N687        H707   1.046       .  S
N687        H708   1.046       .  S
C689        C692   1.401       .  A
C689        C696   1.405       .  A
N690        H705   1.046       .  S
N690        H706   1.046       .  S
C692        C693   1.406       .  A
C692        H697   1.084       .  S
C693        C694   1.415       .  A
C693        N698   1.438       .  S
C694        C695   1.406       .  A
C695        C696   1.402       .  A
C695        H699   1.084       .  S
C696        N700   1.438       .  S
N698        H701   1.046       .  S
N698        H702   1.046       .  S
N700        H703   1.046       .  S
N700        H704   1.046       .  S
C709        C710   1.411       .  A
C709        C714   1.406       .  A
C710        C711   1.400       .  A
C710        N715   1.433       .  S
C711        C712   1.400       .  A
C711        H716   1.084       .  S
C712        C713   1.408       .  A
C712        C717   1.477       .  S
C713        C714   1.407       .  A
C713        N718   1.437       .  S
C714        H719   1.084       .  S
N715        H735   1.046       .  S
N715        H736   1.046       .  S
C717        C720   1.399       .  A
C717        C724   1.406       .  A
N718        H733   1.046       .  S
N718        H734   1.045       .  S
C720        C721   1.406       .  A
C720        H725   1.084       .  S
C721        C722   1.418       .  A
C721        N726   1.438       .  S
C722        C723   1.407       .  A
C723        C724   1.404       .  A
C723        H727   1.083       .  S
C724        N728   1.438       .  S
N726        H729   1.046       .  S
N726        H730   1.046       .  S
N728        H731   1.046       .  S
N728        H732   1.046       .  S
C737        C738   1.414       .  A
C737        C742   1.407       .  A
C738        C739   1.404       .  A
C738        N743   1.438       .  S
C739        C740   1.400       .  A
C739        H744   1.084       .  S
C740        C741   1.408       .  A
C740        C745   1.476       .  S
C741        C742   1.405       .  A
C741        N746   1.438       .  S
C742        H747   1.083       .  S
N743        H763   1.045       .  S
N743        H764   1.046       .  S
C745        C748   1.401       .  A
C745        C752   1.409       .  A
N746        H761   1.046       .  S
N746        H762   1.044       .  S
C748        C749   1.405       .  A
C748        H753   1.084       .  S
C749        C750   1.414       .  A
C749        N754   1.438       .  S
C750        C751   1.405       .  A
C751        C752   1.404       .  A
C751        H755   1.084       .  S
C752        N756   1.438       .  S
N754        H757   1.046       .  S
N754        H758   1.046       .  S
N756        H759   1.046       .  S
N756        H760   1.044       .  S
C765        C766   1.413       .  A
C765        C770   1.404       .  A
C766        C767   1.405       .  A
C766        N771   1.438       .  S
C767        C768   1.402       .  A
C767        H772   1.084       .  S
C768        C769   1.409       .  A
C768        C773   1.481   1_455  S
C769        C770   1.403       .  A
C769        N774   1.438       .  S
C770        H775   1.084       .  S
N771        H791   1.046       .  S
N771        H792   1.046       .  S
C773        C776   1.400       .  A
C773        C780   1.408       .  A
N774        H789   1.046       .  S
N774        H790   1.046       .  S
C776        C777   1.403       .  A
C776        H781   1.084       .  S
C777        C778   1.417       .  A
C777        N782   1.438       .  S
C778        C779   1.408       .  A
C779        C780   1.406       .  A
C779        H783   1.083       .  S
C780        N784   1.438       .  S
N782        H785   1.046       .  S
N782        H786   1.046       .  S
N784        H787   1.046       .  S
N784        H788   1.046       .  S
C793        C794   1.410       .  A
C793        C798   1.403       .  A
C794        C795   1.406       .  A
C794        N799   1.438       .  S
C795        C796   1.404       .  A
C795        H800   1.084       .  S
C796        C797   1.410       .  A
C796        C801   1.482   1_565  S
C797        C798   1.404       .  A
C797        N802   1.438       .  S
C798        H803   1.084       .  S
N799        H819   1.046       .  S
N799        H820   1.046       .  S
C801        C804   1.402       .  A
C801        C808   1.406       .  A
N802        H817   1.046       .  S
N802        H818   1.046   1_565  S
C804        C805   1.408       .  A
C804        H809   1.084   1_545  S
C805        C806   1.419       .  A
C805        N810   1.438       .  S
C806        C807   1.408       .  A
C807        C808   1.402       .  A
C807        H811   1.083       .  S
C808        N812   1.438       .  S
N810        H813   1.046       .  S
N810        H814   1.046       .  S
N812        H815   1.046       .  S
N812        H816   1.046       .  S
C821        C822   1.418       .  A
C821        C826   1.409       .  A
C822        C823   1.402       .  A
C822        N827   1.438       .  S
C823        C824   1.399       .  A
C823        H828   1.084       .  S
C824        C825   1.405       .  A
C824        C829   1.473       .  S
C825        C826   1.402       .  A
C825        N830   1.438       .  S
C826        H831   1.083       .  S
N827        H847   1.045       .  S
N827        H848   1.046       .  S
C829        C832   1.401       .  A
C829        C836   1.408       .  A
N830        H845   1.046       .  S
N830        H846   1.046       .  S
C832        C833   1.403       .  A
C832        H837   1.084       .  S
C833        C834   1.412       .  A
C833        N838   1.438       .  S
C834        C835   1.403       .  A
C835        C836   1.402       .  A
C835        H839   1.084       .  S
C836        N840   1.438       .  S
N838        H841   1.046       .  S
N838        H842   1.046       .  S
N840        H843   1.046       .  S
N840        H844   1.046       .  S
C849        C850   1.412       .  A
C849        C854   1.404       .  A
C850        C851   1.403       .  A
C850        N855   1.438       .  S
C851        C852   1.400       .  A
C851        H856   1.084       .  S
C852        C853   1.407       .  A
C852        C857   1.474       .  S
C853        C854   1.404       .  A
C853        N858   1.437       .  S
C854        H859   1.084       .  S
N855        H875   1.045       .  S
N855        H876   1.046       .  S
C857        C860   1.400       .  A
C857        C864   1.407       .  A
N858        H873   1.046       .  S
N858        H874   1.046       .  S
C860        C861   1.405       .  A
C860        H865   1.084       .  S
C861        C862   1.412       .  A
C861        N866   1.438       .  S
C862        C863   1.403       .  A
C863        C864   1.403       .  A
C863        H867   1.084       .  S
C864        N868   1.438       .  S
N866        H869   1.046       .  S
N866        H870   1.046       .  S
N868        H871   1.046       .  S
N868        H872   1.046       .  S
C877        C878   1.411       .  A
C877        C882   1.404       .  A
C878        C879   1.405       .  A
C878        N883   1.438       .  S
C879        C880   1.403       .  A
C879        H884   1.084       .  S
C880        C881   1.409       .  A
C880        C885   1.479       .  S
C881        C882   1.404       .  A
C881        N886   1.438       .  S
C882        H887   1.084       .  S
N883        H903   1.046       .  S
N883        H904   1.046       .  S
C885        C888   1.402       .  A
C885        C892   1.410       .  A
N886        H901   1.046       .  S
N886        H902   1.046       .  S
C888        C889   1.405       .  A
C888        H893   1.084       .  S
C889        C890   1.412       .  A
C889        N894   1.438       .  S
C890        C891   1.403       .  A
C891        C892   1.403       .  A
C891        H895   1.084       .  S
C892        N896   1.438       .  S
N894        H897   1.046       .  S
N894        H898   1.046       .  S
N896        H899   1.046       .  S
N896        H900   1.046       .  S
C905        C906   1.412       .  A
C905        C910   1.405       .  A
C906        C907   1.400       .  A
C906        N911   1.433       .  S
C907        C908   1.400       .  A
C907        H912   1.084       .  S
C908        C909   1.410       .  A
C908        C913   1.478   1_455  S
C909        C910   1.406       .  A
C909        N914   1.437       .  S
C910        H915   1.083       .  S
N911        H931   1.046       .  S
N911        H932   1.046       .  S
C913        C916   1.399       .  A
C913        C920   1.408       .  A
N914        H929   1.046       .  S
N914        H930   1.045       .  S
C916        C917   1.404       .  A
C916        H921   1.084       .  S
C917        C918   1.420       .  A
C917        N922   1.438       .  S
C918        C919   1.407       .  A
C919        C920   1.404       .  A
C919        H923   1.083       .  S
C920        N924   1.438   1_655  S
N922        H925   1.046       .  S
N922        H926   1.046       .  S
N924        H927   1.046       .  S
N924        H928   1.046       .  S
C933        C934   1.413       .  A
C933        C938   1.404       .  A
C934        C935   1.404       .  A
C934        N939   1.438       .  S
C935        C936   1.403       .  A
C935        H940   1.084       .  S
C936        C937   1.410       .  A
C936        C941   1.481   1_565  S
C937        C938   1.402       .  A
C937        N942   1.438       .  S
C938        H943   1.084       .  S
N939        H959   1.045       .  S
N939        H960   1.046       .  S
C941        C944   1.401       .  A
C941        C948   1.408       .  A
N942        H957   1.046       .  S
N942        H958   1.045       .  S
C944        C945   1.404       .  A
C944        H949   1.084       .  S
C945        C946   1.418       .  A
C945        N950   1.438       .  S
C946        C947   1.406       .  A
C947        C948   1.403       .  A
C947        H951   1.083       .  S
C948        N952   1.438       .  S
N950        H953   1.046       .  S
N950        H954   1.046       .  S
N952        H955   1.046       .  S
N952        H956   1.045       .  S
C961        C962   1.418       .  A
C961        C966   1.407       .  A
C962        C963   1.406       .  A
C962        N967   1.438       .  S
C963        C964   1.401       .  A
C963        H968   1.084       .  S
C964        C965   1.407       .  A
C964        C969   1.480       .  S
C965        C966   1.405       .  A
C965        N970   1.438       .  S
C966        H971   1.083       .  S
N967        H987   1.046       .  S
N967        H988   1.046       .  S
C969        C972   1.402       .  A
C969        C976   1.409       .  A
N970        H985   1.046       .  S
N970        H986   1.046       .  S
C972        C973   1.404       .  A
C972        H977   1.084       .  S
C973        C974   1.411       .  A
C973        N978   1.432       .  S
C974        C975   1.405       .  A
C975        C976   1.404       .  A
C975        H979   1.084       .  S
C976        N980   1.438       .  S
N978        H981   1.046       .  S
N978        H982   1.046       .  S
N980        H983   1.046       .  S
N980        H984   1.046       .  S
C989        C990   1.417       .  A
C989        C994   1.406       .  A
C990        C991   1.405       .  A
C990        N995   1.438       .  S
C991        C992   1.401       .  A
C991        H996   1.084       .  S
C992        C993   1.408       .  A
C992        C997   1.480       .  S
C993        C994   1.401       .  A
C993        N998   1.438       .  S
C994        H999   1.083       .  S
N995       H1015   1.046       .  S
N995       H1016   1.046       .  S
C997       C1000   1.403       .  A
C997       C1004   1.410       .  A
N998       H1013   1.046       .  S
N998       H1014   1.045       .  S
C1000      C1001   1.402       .  A
C1000      H1005   1.084       .  S
C1001      C1002   1.410       .  A
C1001      N1006   1.438       .  S
C1002      C1003   1.403       .  A
C1003      C1004   1.403       .  A
C1003      H1007   1.084       .  S
C1004      N1008   1.438       .  S
N1006      H1009   1.046       .  S
N1006      H1010   1.046       .  S
N1008      H1011   1.046       .  S
N1008      H1012   1.046       .  S
C1017      C1018   1.409       .  A
C1017      C1022   1.402       .  A
C1018      C1019   1.400       .  A
C1018      N1023   1.433       .  S
C1019      C1020   1.401       .  A
C1019      H1024   1.084       .  S
C1020      C1021   1.412       .  A
C1020      C1025   1.479       .  S
C1021      C1022   1.405       .  A
C1021      N1026   1.438       .  S
C1022      H1027   1.084       .  S
N1023      H1043   1.046       .  S
N1023      H1044   1.046       .  S
C1025      C1028   1.399       .  A
C1025      C1032   1.408       .  A
N1026      H1041   1.045       .  S
N1026      H1042   1.046       .  S
C1028      C1029   1.404       .  A
C1028      H1033   1.084       .  S
C1029      C1030   1.419       .  A
C1029      N1034   1.438       .  S
C1030      C1031   1.408       .  A
C1031      C1032   1.403       .  A
C1031      H1035   1.083       .  S
C1032      N1036   1.438       .  S
N1034      H1037   1.046       .  S
N1034      H1038   1.046       .  S
N1036      H1039   1.046       .  S
N1036      H1040   1.045       .  S
C1045      C1046   1.413   1_655  A
C1045      C1050   1.405       .  A
C1046      C1047   1.405       .  A
C1046      N1051   1.438       .  S
C1047      C1048   1.400       .  A
C1047      H1052   1.084       .  S
C1048      C1049   1.408   1_455  A
C1048      C1053   1.476   1_554  S
C1049      C1050   1.403       .  A
C1049      N1054   1.438   1_554  S
C1050      H1055   1.084       .  S
N1051      H1071   1.045       .  S
N1051      H1072   1.046       .  S
C1053      C1056   1.401       .  A
C1053      C1060   1.408       .  A
N1054      H1069   1.046   1_556  S
N1054      H1070   1.046   1_655  S
C1056      C1057   1.403       .  A
C1056      H1061   1.084   1_455  S
C1057      C1058   1.410       .  A
C1057      N1062   1.438       .  S
C1058      C1059   1.405       .  A
C1059      C1060   1.405       .  A
C1059      H1063   1.084       .  S
C1060      N1064   1.437   1_556  S
N1062      H1065   1.046       .  S
N1062      H1066   1.046   1_455  S
N1064      H1067   1.046   1_554  S
N1064      H1068   1.046       .  S
C1073      C1074   1.414       .  A
C1073      C1078   1.404       .  A
C1074      C1075   1.403       .  A
C1074      N1079   1.438       .  S
C1075      C1076   1.401       .  A
C1075      H1080   1.084       .  S
C1076      C1077   1.408       .  A
C1076      C1081   1.476       .  S
C1077      C1078   1.402       .  A
C1077      N1082   1.438       .  S
C1078      H1083   1.084       .  S
N1079      H1099   1.046       .  S
N1079      H1100   1.046       .  S
C1081      C1084   1.400       .  A
C1081      C1088   1.407       .  A
N1082      H1097   1.046       .  S
N1082      H1098   1.046       .  S
C1084      C1085   1.403       .  A
C1084      H1089   1.084       .  S
C1085      C1086   1.416       .  A
C1085      N1090   1.438       .  S
C1086      C1087   1.407       .  A
C1087      C1088   1.402       .  A
C1087      H1091   1.083       .  S
C1088      N1092   1.438       .  S
N1090      H1093   1.046       .  S
N1090      H1094   1.046       .  S
N1092      H1095   1.046       .  S
N1092      H1096   1.046       .  S
C1101      C1102   1.410       .  A
C1101      C1106   1.402       .  A
C1102      C1103   1.403       .  A
C1102      N1107   1.438       .  S
C1103      C1104   1.403       .  A
C1103      H1108   1.084       .  S
C1104      C1105   1.410       .  A
C1104      C1109   1.480       .  S
C1105      C1106   1.403       .  A
C1105      N1110   1.438       .  S
C1106      H1111   1.084       .  S
N1107      H1127   1.046       .  S
N1107      H1128   1.046       .  S
C1109      C1112   1.402       .  A
C1109      C1116   1.407       .  A
N1110      H1125   1.046       .  S
N1110      H1126   1.046       .  S
C1112      C1113   1.405       .  A
C1112      H1117   1.084       .  S
C1113      C1114   1.416       .  A
C1113      N1118   1.438       .  S
C1114      C1115   1.407       .  A
C1115      C1116   1.401       .  A
C1115      H1119   1.083       .  S
C1116      N1120   1.438       .  S
N1118      H1121   1.046       .  S
N1118      H1122   1.046       .  S
N1120      H1123   1.046       .  S
N1120      H1124   1.045       .  S
C1129      C1130   1.409       .  A
C1129      C1134   1.403       .  A
C1130      C1131   1.403       .  A
C1130      N1135   1.438       .  S
C1131      C1132   1.400       .  A
C1131      H1136   1.084       .  S
C1132      C1133   1.407       .  A
C1132      C1137   1.472       .  S
C1133      C1134   1.404       .  A
C1133      N1138   1.437       .  S
C1134      H1139   1.084       .  S
N1135      H1155   1.046       .  S
N1135      H1156   1.046       .  S
C1137      C1140   1.397       .  A
C1137      C1144   1.407       .  A
N1138      H1153   1.046       .  S
N1138      H1154   1.045       .  S
C1140      C1141   1.402       .  A
C1140      H1145   1.084       .  S
C1141      C1142   1.416       .  A
C1141      N1146   1.438       .  S
C1142      C1143   1.406       .  A
C1143      C1144   1.405       .  A
C1143      H1147   1.083       .  S
C1144      N1148   1.438       .  S
N1146      H1149   1.046       .  S
N1146      H1150   1.046       .  S
N1148      H1151   1.045       .  S
N1148      H1152   1.046       .  S
C1157      C1158   1.408       .  A
C1157      C1162   1.404       .  A
C1158      C1159   1.401       .  A
C1158      N1163   1.432       .  S
C1159      C1160   1.401       .  A
C1159      H1164   1.084   1_565  S
C1160      C1161   1.408       .  A
C1160      C1165   1.474   1_556  S
C1161      C1162   1.403       .  A
C1161      N1166   1.438   1_556  S
C1162      H1167   1.084       .  S
N1163      H1183   1.046       .  S
N1163      H1184   1.046   1_565  S
C1165      C1168   1.401       .  A
C1165      C1172   1.408   1_565  A
N1166      H1181   1.046   1_554  S
N1166      H1182   1.046       .  S
C1168      C1169   1.404       .  A
C1168      H1173   1.084       .  S
C1169      C1170   1.411   1_565  A
C1169      N1174   1.438       .  S
C1170      C1171   1.403       .  A
C1171      C1172   1.402       .  A
C1171      H1175   1.084       .  S
C1172      N1176   1.438   1_554  S
N1174      H1177   1.046       .  S
N1174      H1178   1.046       .  S
N1176      H1179   1.045       .  S
N1176      H1180   1.047       .  S
C1185      C1186   1.414       .  A
C1185      C1190   1.405       .  A
C1186      C1187   1.403       .  A
C1186      N1191   1.438       .  S
C1187      C1188   1.399       .  A
C1187      H1192   1.084       .  S
C1188      C1189   1.407       .  A
C1188      C1193   1.473   1_455  S
C1189      C1190   1.405       .  A
C1189      N1194   1.438       .  S
C1190      H1195   1.084       .  S
N1191      H1211   1.046       .  S
N1191      H1212   1.046       .  S
C1193      C1196   1.400       .  A
C1193      C1200   1.407       .  A
N1194      H1209   1.046       .  S
N1194      H1210   1.046       .  S
C1196      C1197   1.404       .  A
C1196      H1201   1.084   1_655  S
C1197      C1198   1.413       .  A
C1197      N1202   1.438       .  S
C1198      C1199   1.404       .  A
C1199      C1200   1.403       .  A
C1199      H1203   1.084       .  S
C1200      N1204   1.438       .  S
N1202      H1205   1.046       .  S
N1202      H1206   1.046       .  S
N1204      H1207   1.046       .  S
N1204      H1208   1.046       .  S
C1213      C1214   1.418       .  A
C1213      C1218   1.407       .  A
C1214      C1215   1.405       .  A
C1214      N1219   1.438       .  S
C1215      C1216   1.401       .  A
C1215      H1220   1.084       .  S
C1216      C1217   1.408       .  A
C1216      C1221   1.480       .  S
C1217      C1218   1.403       .  A
C1217      N1222   1.438       .  S
C1218      H1223   1.083       .  S
N1219      H1239   1.046       .  S
N1219      H1240   1.046       .  S
C1221      C1224   1.403   1_565  A
C1221      C1228   1.411   1_565  A
N1222      H1237   1.046       .  S
N1222      H1238   1.046   1_565  S
C1224      C1225   1.403       .  A
C1224      H1229   1.084   1_545  S
C1225      C1226   1.409       .  A
C1225      N1230   1.438       .  S
C1226      C1227   1.402       .  A
C1227      C1228   1.404       .  A
C1227      H1231   1.084       .  S
C1228      N1232   1.438       .  S
N1230      H1233   1.046       .  S
N1230      H1234   1.046       .  S
N1232      H1235   1.046       .  S
N1232      H1236   1.046       .  S
C1241      C1242   1.408       .  A
C1241      C1246   1.404       .  A
C1242      C1243   1.400       .  A
C1242      N1247   1.432       .  S
C1243      C1244   1.401       .  A
C1243      H1248   1.084       .  S
C1244      C1245   1.409       .  A
C1244      C1249   1.475       .  S
C1245      C1246   1.404       .  A
C1245      N1250   1.438       .  S
C1246      H1251   1.084       .  S
N1247      H1267   1.045       .  S
N1247      H1268   1.046       .  S
C1249      C1252   1.400       .  A
C1249      C1256   1.406       .  A
N1250      H1265   1.046       .  S
N1250      H1266   1.046       .  S
C1252      C1253   1.405       .  A
C1252      H1257   1.084       .  S
C1253      C1254   1.417       .  A
C1253      N1258   1.438       .  S
C1254      C1255   1.408       .  A
C1255      C1256   1.401       .  A
C1255      H1259   1.083       .  S
C1256      N1260   1.438       .  S
N1258      H1261   1.046       .  S
N1258      H1262   1.046       .  S
N1260      H1263   1.046       .  S
N1260      H1264   1.046       .  S
C1269      C1270   1.411       .  A
C1269      C1274   1.404       .  A
C1270      C1271   1.400       .  A
C1270      N1275   1.433       .  S
C1271      C1272   1.402       .  A
C1271      H1276   1.084       .  S
C1272      C1273   1.411       .  A
C1272      C1277   1.482       .  S
C1273      C1274   1.405       .  A
C1273      N1278   1.438       .  S
C1274      H1279   1.084       .  S
N1275      H1295   1.045       .  S
N1275      H1296   1.046       .  S
C1277      C1280   1.400       .  A
C1277      C1284   1.409       .  A
N1278      H1293   1.046       .  S
N1278      H1294   1.046       .  S
C1280      C1281   1.403       .  A
C1280      H1285   1.084       .  S
C1281      C1282   1.420       .  A
C1281      N1286   1.438       .  S
C1282      C1283   1.408       .  A
C1283      C1284   1.405       .  A
C1283      H1287   1.083       .  S
C1284      N1288   1.438       .  S
N1286      H1289   1.046       .  S
N1286      H1290   1.046       .  S
N1288      H1291   1.046       .  S
N1288      H1292   1.045       .  S
C1297      C1298   1.417       .  A
C1297      C1302   1.408       .  A
C1298      C1299   1.404       .  A
C1298      N1303   1.438       .  S
C1299      C1300   1.399       .  A
C1299      H1304   1.084       .  S
C1300      C1301   1.406       .  A
C1300      C1305   1.475       .  S
C1301      C1302   1.405       .  A
C1301      N1306   1.438       .  S
C1302      H1307   1.083       .  S
N1303      H1323   1.046       .  S
N1303      H1324   1.046       .  S
C1305      C1308   1.401       .  A
C1305      C1312   1.408       .  A
N1306      H1321   1.046       .  S
N1306      H1322   1.046       .  S
C1308      C1309   1.404       .  A
C1308      H1313   1.084       .  S
C1309      C1310   1.411       .  A
C1309      N1314   1.438       .  S
C1310      C1311   1.403       .  A
C1311      C1312   1.404       .  A
C1311      H1315   1.084       .  S
C1312      N1316   1.438       .  S
N1314      H1317   1.046       .  S
N1314      H1318   1.046       .  S
N1316      H1319   1.046       .  S
N1316      H1320   1.046       .  S
C1325      C1326   1.406       .  A
C1325      C1330   1.402       .  A
C1326      C1327   1.401       .  A
C1326      N1331   1.432       .  S
C1327      C1328   1.403       .  A
C1327      H1332   1.084       .  S
C1328      C1329   1.410       .  A
C1328      C1333   1.478       .  S
C1329      C1330   1.404       .  A
C1329      N1334   1.437       .  S
C1330      H1335   1.084       .  S
N1331      H1351   1.046       .  S
N1331      H1352   1.046       .  S
C1333      C1336   1.402       .  A
C1333      C1340   1.409       .  A
N1334      H1349   1.046       .  S
N1334      H1350   1.045       .  S
C1336      C1337   1.404       .  A
C1336      H1341   1.084       .  S
C1337      C1338   1.411       .  A
C1337      N1342   1.438       .  S
C1338      C1339   1.403       .  A
C1339      C1340   1.403       .  A
C1339      H1343   1.084       .  S
C1340      N1344   1.438       .  S
N1342      H1345   1.046       .  S
N1342      H1346   1.046       .  S
N1344      H1347   1.046       .  S
N1344      H1348   1.045       .  S
C1353      C1354   1.415       .  A
C1353      C1358   1.406       .  A
C1354      C1355   1.404       .  A
C1354      N1359   1.438       .  S
C1355      C1356   1.400       .  A
C1355      H1360   1.084       .  S
C1356      C1357   1.407       .  A
C1356      C1361   1.476       .  S
C1357      C1358   1.403       .  A
C1357      N1362   1.438       .  S
C1358      H1363   1.083       .  S
N1359      H1379   1.046       .  S
N1359      H1380   1.046       .  S
C1361      C1364   1.402       .  A
C1361      C1368   1.406       .  A
N1362      H1377   1.046       .  S
N1362      H1378   1.046       .  S
C1364      C1365   1.406       .  A
C1364      H1369   1.084       .  S
C1365      C1366   1.413       .  A
C1365      N1370   1.437       .  S
C1366      C1367   1.406       .  A
C1367      C1368   1.401       .  A
C1367      H1371   1.084       .  S
C1368      N1372   1.438       .  S
N1370      H1373   1.046       .  S
N1370      H1374   1.046       .  S
N1372      H1375   1.046       .  S
N1372      H1376   1.046       .  S
C1381      C1382   1.414       .  A
C1381      C1386   1.406       .  A
C1382      C1383   1.403       .  A
C1382      N1387   1.438       .  S
C1383      C1384   1.399       .  A
C1383      H1388   1.084       .  S
C1384      C1385   1.406       .  A
C1384      C1389   1.470       .  S
C1385      C1386   1.402       .  A
C1385      N1390   1.438       .  S
C1386      H1391   1.083       .  S
N1387      H1407   1.046       .  S
N1387      H1408   1.046       .  S
C1389      C1392   1.400       .  A
C1389      C1396   1.407       .  A
N1390      H1405   1.046       .  S
N1390      H1406   1.046       .  S
C1392      C1393   1.401       .  A
C1392      H1397   1.084       .  S
C1393      C1394   1.411       .  A
C1393      N1398   1.432       .  S
C1394      C1395   1.404       .  A
C1395      C1396   1.400       .  A
C1395      H1399   1.084       .  S
C1396      N1400   1.438       .  S
N1398      H1401   1.045       .  S
N1398      H1402   1.046       .  S
N1400      H1403   1.045       .  S
N1400      H1404   1.046       .  S
C1409      C1410   1.415       .  A
C1409      C1414   1.405       .  A
C1410      C1411   1.404       .  A
C1410      N1415   1.438       .  S
C1411      C1412   1.400       .  A
C1411      H1416   1.084       .  S
C1412      C1413   1.407       .  A
C1412      C1417   1.476       .  S
C1413      C1414   1.404       .  A
C1413      N1418   1.438       .  S
C1414      H1419   1.084       .  S
N1415      H1435   1.046       .  S
N1415      H1436   1.046       .  S
C1417      C1420   1.400       .  A
C1417      C1424   1.408       .  A
N1418      H1433   1.046       .  S
N1418      H1434   1.046       .  S
C1420      C1421   1.403       .  A
C1420      H1425   1.084       .  S
C1421      C1422   1.413       .  A
C1421      N1426   1.438       .  S
C1422      C1423   1.405       .  A
C1423      C1424   1.404       .  A
C1423      H1427   1.084       .  S
C1424      N1428   1.438       .  S
N1426      H1429   1.046       .  S
N1426      H1430   1.046       .  S
N1428      H1431   1.046       .  S
N1428      H1432   1.046       .  S
C1437      C1438   1.419       .  A
C1437      C1442   1.408       .  A
C1438      C1439   1.406       .  A
C1438      N1443   1.438       .  S
C1439      C1440   1.400       .  A
C1439      H1444   1.084       .  S
C1440      C1441   1.406       .  A
C1440      C1445   1.477       .  S
C1441      C1442   1.401       .  A
C1441      N1446   1.438       .  S
C1442      H1447   1.083       .  S
N1443      H1463   1.046       .  S
N1443      H1464   1.046       .  S
C1445      C1448   1.400       .  A
C1445      C1452   1.410       .  A
N1446      H1461   1.046       .  S
N1446      H1462   1.046       .  S
C1448      C1449   1.398       .  A
C1448      H1453   1.084       .  S
C1449      C1450   1.410       .  A
C1449      N1454   1.433       .  S
C1450      C1451   1.405       .  A
C1451      C1452   1.407       .  A
C1451      H1455   1.084       .  S
C1452      N1456   1.437       .  S
N1454      H1457   1.046       .  S
N1454      H1458   1.046       .  S
N1456      H1459   1.046       .  S
N1456      H1460   1.046       .  S
C1465      C1466   1.409       .  A
C1465      C1470   1.401       .  A
C1466      C1467   1.406       .  A
C1466      N1471   1.438       .  S
C1467      C1468   1.406       .  A
C1467      H1472   1.084       .  S
C1468      C1469   1.412       .  A
C1468      C1473   1.486       .  S
C1469      C1470   1.403       .  A
C1469      N1474   1.438       .  S
C1470      H1475   1.084       .  S
N1471      H1491   1.045       .  S
N1471      H1492   1.046       .  S
C1473      C1476   1.403       .  A
C1473      C1480   1.411       .  A
N1474      H1489   1.046       .  S
N1474      H1490   1.046       .  S
C1476      C1477   1.404       .  A
C1476      H1481   1.084       .  S
C1477      C1478   1.415       .  A
C1477      N1482   1.438       .  S
C1478      C1479   1.407       .  A
C1479      C1480   1.405       .  A
C1479      H1483   1.083       .  S
C1480      N1484   1.438       .  S
N1482      H1485   1.046       .  S
N1482      H1486   1.046       .  S
N1484      H1487   1.046       .  S
N1484      H1488   1.045       .  S
C1493      C1494   1.409       .  A
C1493      C1498   1.402       .  A
C1494      C1495   1.404       .  A
C1494      N1499   1.438       .  S
C1495      C1496   1.403       .  A
C1495      H1500   1.084       .  S
C1496      C1497   1.412       .  A
C1496      C1501   1.484       .  S
C1497      C1498   1.406       .  A
C1497      N1502   1.438       .  S
C1498      H1503   1.084       .  S
N1499      H1519   1.045       .  S
N1499      H1520   1.045       .  S
C1501      C1504   1.401       .  A
C1501      C1508   1.409       .  A
N1502      H1517   1.046       .  S
N1502      H1518   1.046       .  S
C1504      C1505   1.407       .  A
C1504      H1509   1.084       .  S
C1505      C1506   1.419       .  A
C1505      N1510   1.438       .  S
C1506      C1507   1.407       .  A
C1507      C1508   1.404       .  A
C1507      H1511   1.083       .  S
C1508      N1512   1.438       .  S
N1510      H1513   1.046       .  S
N1510      H1514   1.046       .  S
N1512      H1515   1.045       .  S
N1512      H1516   1.046       .  S
C1521      C1522   1.412       .  A
C1521      C1526   1.402       .  A
C1522      C1523   1.405       .  A
C1522      N1527   1.438       .  S
C1523      C1524   1.402   1_554  A
C1523      H1528   1.084   1_554  S
C1524      C1525   1.411   1_556  A
C1524      C1529   1.482       .  S
C1525      C1526   1.404       .  A
C1525      N1530   1.438       .  S
C1526      H1531   1.084       .  S
N1527      H1547   1.046       .  S
N1527      H1548   1.046       .  S
C1529      C1532   1.402       .  A
C1529      C1536   1.411       .  A
N1530      H1545   1.046       .  S
N1530      H1546   1.045       .  S
C1532      C1533   1.403       .  A
C1532      H1537   1.084       .  S
C1533      C1534   1.411       .  A
C1533      N1538   1.438       .  S
C1534      C1535   1.404       .  A
C1535      C1536   1.406       .  A
C1535      H1539   1.084       .  S
C1536      N1540   1.438       .  S
N1538      H1541   1.046       .  S
N1538      H1542   1.046       .  S
N1540      H1543   1.046       .  S
N1540      H1544   1.045       .  S
