geometry optimzed in LAMMPS
_audit_creation_date              2020-11-30 
_audit_creation_method            'lammps2cif' 
_symmetry_space_group_name_H-M    'P1' 
_symmetry_Int_Tables_number       1 
_symmetry_cell_setting            triclinic 
loop_ 
_symmetry_equiv_pos_as_xyz 
  x,y,z 
_cell_length_a                    57.43546674 
_cell_length_b                    57.181631912121055 
_cell_length_c                    57.10518298333995 
_cell_angle_alpha                 89.9477343682789 
_cell_angle_beta                  89.90034005742872 
_cell_angle_gamma                 89.78940373603521 
loop_ 
_atom_site_label 
_atom_site_type_symbol 
_atom_site_fract_x 
_atom_site_fract_y 
_atom_site_fract_z 
_atom_site_charge 
C1          C  0.90231879  0.41064201  0.47242409     0.86400
C2          C  0.89444971  0.43651855  0.47372851    -0.53800
C3          C  0.90338840  0.44861133  0.49241174     0.09300
C4          C  0.91799503  0.43298807  0.50930882     0.20300
C5          C  0.92887007  0.41187714  0.47424953    -0.54500
C6          C  0.93766569  0.42271428  0.49364244     0.09400
C7          C  0.89357272  0.40117584  0.49612939    -0.54100
C8          C  0.90209212  0.41204619  0.51553878     0.10000
H9          H  0.88337193  0.44497586  0.46091779     0.14500
H10         H  0.92367420  0.44204571  0.52532564     0.00300
H11         H  0.93991889  0.40510040  0.46037152     0.14800
H12         H  0.88106138  0.38711189  0.49753616     0.14600
C13         C  0.90878119  0.58681530  0.52804055     0.86400
C14         C  0.90319015  0.56032725  0.52491775    -0.53800
C15         C  0.90956571  0.55075843  0.50349723     0.09300
C16         C  0.92177062  0.56911188  0.48756029     0.20300
C17         C  0.93514917  0.58651601  0.52383817    -0.54500
C18         C  0.94216573  0.57789992  0.50282978     0.09400
C19         C  0.89793529  0.59875211  0.50656702    -0.54100
C20         C  0.90470253  0.58998517  0.48541589     0.10000
H21         H  0.89708436  0.54940227  0.53912626     0.14500
H22         H  0.92707923  0.56284338  0.47006729     0.00300
H23         H  0.94765960  0.59131752  0.53723157     0.14800
H24         H  0.88593817  0.61339867  0.50810036     0.14600
C25         C  0.08207195  0.58710414  0.47659007     0.86400
C26         C  0.08741791  0.56075985  0.47954312    -0.53800
C27         C  0.07702079  0.55059487  0.49862710     0.09300
C28         C  0.06178220  0.56799402  0.51302735     0.20300
C29         C  0.05524451  0.58697437  0.47580809    -0.54500
C30         C  0.04397923  0.57761146  0.49480342     0.09400
C31         C  0.08880387  0.59791804  0.50020446    -0.54100
C32         C  0.07794521  0.58865479  0.51921644     0.10000
H33         H  0.09562320  0.54990831  0.46646545     0.14500
H34         H  0.05430210  0.56058434  0.52917115     0.00300
H35         H  0.04617794  0.59214492  0.46000837     0.14800
H36         H  0.10081688  0.61245931  0.50166947     0.14600
C37         C  0.06977497  0.41129635  0.53504060     0.86400
C38         C  0.07606958  0.43765433  0.53281993    -0.53800
C39         C  0.07116102  0.44786230  0.51114118     0.09300
C40         C  0.05970653  0.42968229  0.49421452     0.20300
C41         C  0.04376377  0.41255592  0.52947223    -0.54500
C42         C  0.03826565  0.42131405  0.50820860     0.09400
C43         C  0.08188877  0.39963209  0.51420423    -0.54100
C44         C  0.07635165  0.40831948  0.49276672     0.10000
H45         H  0.08122213  0.44773839  0.54796677     0.14500
H46         H  0.05554519  0.43573907  0.47644531     0.00300
H47         H  0.03031344  0.40871591  0.54229738     0.14800
H48         H  0.09400795  0.38521255  0.51650632     0.14600
C49         C  0.38801478  0.45843607  0.91562790     0.86400
C50         C  0.41432035  0.45813081  0.91098352    -0.53800
C51         C  0.42522521  0.47879322  0.91537550     0.09300
C52         C  0.40867165  0.49813541  0.92518862     0.20300
C53         C  0.38720717  0.46595540  0.94182428    -0.54500
C54         C  0.39750714  0.48699873  0.94692845     0.09400
C55         C  0.37887125  0.47947805  0.90167791    -0.54100
C56         C  0.38842931  0.50058264  0.90742481     0.10000
H57         H  0.42396371  0.44244019  0.90633472     0.14500
H58         H  0.41713339  0.51493838  0.92904359     0.00300
H59         H  0.38055583  0.45485344  0.95567423     0.14800
H60         H  0.36522635  0.47765192  0.88872107     0.14600
C61         C  0.56380453  0.51065675  0.91188563     0.86400
C62         C  0.53665282  0.51151504  0.91092445    -0.53800
C63         C  0.52578293  0.49182035  0.91943264     0.09300
C64         C  0.54303858  0.47382866  0.92935564     0.20300
C65         C  0.56844309  0.50648943  0.93788207    -0.54500
C66         C  0.55742156  0.48786295  0.94749774     0.09400
C67         C  0.57035136  0.48758994  0.90011191    -0.54100
C68         C  0.55941620  0.46790794  0.90831788     0.10000
H69         H  0.52644075  0.52644258  0.90556188     0.14500
H70         H  0.53438144  0.45895510  0.93759599     0.00300
H71         H  0.57844347  0.51863267  0.94846316     0.14800
H72         H  0.58415070  0.48737581  0.88733555     0.14600
C73         C  0.56867757  0.46519178  0.08804685     0.86400
C74         C  0.54225962  0.46610068  0.09403663    -0.53800
C75         C  0.53014854  0.48423934  0.08380712     0.09300
C76         C  0.54592355  0.49986566  0.06861350     0.20300
C77         C  0.56868571  0.46532189  0.06091075    -0.54500
C78         C  0.55633241  0.48300020  0.05026929     0.09400
C79         C  0.57771224  0.48919937  0.09491118    -0.54100
C80         C  0.56664502  0.50742890  0.08450100     0.10000
H81         H  0.53332725  0.45291462  0.10402844     0.14500
H82         H  0.53578597  0.51419442  0.06124649     0.00300
H83         H  0.57842583  0.45242583  0.05101210     0.14800
H84         H  0.59281455  0.49159587  0.10608555     0.14600
C85         C  0.38912018  0.51361113  0.08720553     0.86400
C86         C  0.41566306  0.51259264  0.09196728    -0.53800
C87         C  0.42781351  0.49603620  0.07942456     0.09300
C88         C  0.41181196  0.48174921  0.06298865     0.20300
C89         C  0.38779182  0.51671297  0.06039199    -0.54500
C90         C  0.39929088  0.50013662  0.04764245     0.09400
C91         C  0.38116327  0.48851811  0.09175847    -0.54100
C92         C  0.39263421  0.47161088  0.07929786     0.10000
H93         H  0.42460160  0.52403766  0.10375764     0.14500
H94         H  0.42130185  0.46863368  0.05235983     0.00300
H95         H  0.37818716  0.53086012  0.05208757     0.14800
H96         H  0.36736737  0.48440053  0.10409878     0.14600
C97         C  0.51839362  0.90840300  0.58672787     0.86400
C98         C  0.52010097  0.90503418  0.55985270    -0.53800
C99         C  0.50180001  0.91393875  0.54743439     0.09300
C100        C  0.48385177  0.92692390  0.56290464     0.20300
C101        C  0.51591268  0.93520425  0.58906686    -0.54500
C102        C  0.49832876  0.94550942  0.57643666     0.09400
C103        C  0.49437401  0.89915880  0.59368718    -0.54100
C104        C  0.47607766  0.90906299  0.58198195     0.10000
H105        H  0.53515477  0.89790296  0.55090923     0.14500
H106        H  0.46958243  0.93386407  0.55196378     0.00300
H107        H  0.52704457  0.94512710  0.60058690     0.14800
H108        H  0.49189633  0.88717612  0.60824718     0.14600
C109        C  0.45889839  0.91089147  0.41266773     0.86400
C110        C  0.46535991  0.90637306  0.43885127    -0.53800
C111        C  0.48691153  0.91479209  0.44579956     0.09300
C112        C  0.49929060  0.92793993  0.42549290     0.20300
C113        C  0.46049274  0.93767736  0.41188977    -0.54500
C114        C  0.48142974  0.94663789  0.41788320     0.09400
C115        C  0.48007516  0.90133451  0.39897308    -0.54100
C116        C  0.50116706  0.91030602  0.40516153     0.10000
H117        H  0.45326864  0.90010324  0.45184295     0.14500
H118        H  0.51653515  0.93522070  0.42906192     0.00300
H119        H  0.44577671  0.94888849  0.40760850     0.14800
H120        H  0.47827035  0.88797986  0.38562356     0.14600
C121        C  0.52274330  0.07986115  0.41426369     0.86400
C122        C  0.51650748  0.08575187  0.44016670    -0.53800
C123        C  0.49409825  0.07962417  0.44731018     0.09300
C124        C  0.48088883  0.06702036  0.42704601     0.20300
C125        C  0.51865777  0.05327804  0.41440954    -0.54500
C126        C  0.49685077  0.04650933  0.42023991     0.09400
C127        C  0.50286730  0.09087922  0.39995270    -0.54100
C128        C  0.48101295  0.08392760  0.40599499     0.10000
H129        H  0.52950496  0.09149039  0.45254710     0.14500
H130        H  0.46311333  0.06124491  0.42999507     0.00300
H131        H  0.53226446  0.04054180  0.41074769     0.14800
H132        H  0.50617218  0.10353879  0.38621300     0.14600
C133        C  0.46465402  0.08452427  0.58899261     0.86400
C134        C  0.46191700  0.08736728  0.56207761    -0.53800
C135        C  0.48021137  0.07881809  0.54923713     0.09300
C136        C  0.49903579  0.06697554  0.56439990     0.20300
C137        C  0.46813623  0.05820379  0.59207603    -0.54500
C138        C  0.48530616  0.04836519  0.57903044     0.09400
C139        C  0.48831745  0.09484909  0.59467776    -0.54100
C140        C  0.50688554  0.08675326  0.58182803     0.10000
H141        H  0.44658607  0.09415921  0.55344879     0.14500
H142        H  0.51258407  0.05874944  0.55358734     0.00300
H143        H  0.45759807  0.04800585  0.60404949     0.14800
H144        H  0.48989256  0.10670118  0.60928604     0.14600
C145        C  0.40527344  0.89352293  0.97741007     0.86400
C146        C  0.40141292  0.92047586  0.97806193    -0.53800
C147        C  0.40953086  0.93146970  0.99782965     0.09300
C148        C  0.42207681  0.91442608  0.01462176     0.20300
C149        C  0.43185659  0.89162573  0.98018995    -0.54500
C150        C  0.44112699  0.90279680  0.99919460     0.09400
C151        C  0.39546848  0.88437888  0.00061172    -0.54100
C152        C  0.40445575  0.89476422  0.02003176     0.10000
H153        H  0.39475611  0.93054706  0.96348833     0.14500
H154        H  0.42821147  0.92333715  0.03056603     0.00300
H155        H  0.44272967  0.88277370  0.96736809     0.14800
H156        H  0.38342728  0.86980823  0.00164885     0.14600
C157        C  0.57929177  0.88935792  0.02490700     0.86400
C158        C  0.58529082  0.91587378  0.02401400    -0.53800
C159        C  0.57612319  0.92790945  0.00524875     0.09300
C160        C  0.56197823  0.91184324  0.98891730     0.20300
C161        C  0.55245701  0.88943958  0.02324580    -0.54500
C162        C  0.54297769  0.90165371  0.00497224     0.09400
C163        C  0.58757214  0.87988414  0.00136347    -0.54100
C164        C  0.57840547  0.89097565  0.98240939     0.10000
H165        H  0.59471271  0.92488062  0.03748789     0.14500
H166        H  0.55491120  0.92155132  0.97405275     0.00300
H167        H  0.54170759  0.88039847  0.03596782     0.14800
H168        H  0.59877407  0.86461462  0.99976263     0.14600
C169        C  0.40290032  0.06935381  0.03153112     0.86400
C170        C  0.39685275  0.04350160  0.02969758    -0.53800
C171        C  0.40417697  0.03312678  0.00953150     0.09300
C172        C  0.41675294  0.05017243  0.99227677     0.20300
C173        C  0.42951958  0.07041807  0.02693407    -0.54500
C174        C  0.43713945  0.06055431  0.00634865     0.09400
C175        C  0.39268063  0.08062216  0.00922707    -0.54100
C176        C  0.40010588  0.07110860  0.98857460     0.10000
H177        H  0.38887982  0.03375971  0.04392863     0.14500
H178        H  0.42195445  0.04247947  0.97546173     0.00300
H179        H  0.44144359  0.07823973  0.03930958     0.14800
H180        H  0.38203728  0.09621930  0.00942239     0.14600
C181        C  0.57439368  0.06894204  0.97238314     0.86400
C182        C  0.58140200  0.04297434  0.97413557    -0.53800
C183        C  0.57110653  0.03061035  0.99196893     0.09300
C184        C  0.55523317  0.04628546  0.00746908     0.20300
C185        C  0.54771350  0.06960088  0.97279441    -0.54500
C186        C  0.53763440  0.05774252  0.99062946     0.09400
C187        C  0.58018714  0.07902304  0.99690193    -0.54100
C188        C  0.57081082  0.06693091  0.01558278     0.10000
H189        H  0.59397319  0.03528336  0.96220817     0.14500
H190        H  0.54650196  0.03645790  0.02161278     0.00300
H191        H  0.53739672  0.07968708  0.96042131     0.14800
H192        H  0.58941007  0.09523291  0.99965142     0.14600
C193        C  0.91222026  0.96436868  0.41588925     0.86400
C194        C  0.93804397  0.96731380  0.40922417    -0.53800
C195        C  0.94944149  0.98530794  0.42023911     0.09300
C196        C  0.93288643  0.99972199  0.43633516     0.20300
C197        C  0.91143384  0.96385686  0.44277149    -0.54500
C198        C  0.92202342  0.98200821  0.45355515     0.09400
C199        C  0.90113893  0.98849019  0.41054123    -0.54100
C200        C  0.91221813  0.00721709  0.42058362     0.10000
H201        H  0.94635236  0.95604578  0.39642091     0.14500
H202        H  0.94153273  0.01433970  0.44551591     0.00300
H203        H  0.90222150  0.95054989  0.45267067     0.14800
H204        H  0.88505480  0.99090709  0.40101263     0.14600
C205        C  0.90438968  0.01979468  0.58902152     0.86400
C206        C  0.93038819  0.02029758  0.59656186    -0.53800
C207        C  0.94414013  0.00254782  0.58749678     0.09300
C208        C  0.92967824  0.98534175  0.57236667     0.20300
C209        C  0.90468223  0.01810085  0.56230817    -0.54500
C210        C  0.91765598  0.00034609  0.55348776     0.09400
C211        C  0.89709476  0.99535208  0.59759747    -0.54100
C212        C  0.90974284  0.97708950  0.58865809     0.10000
H213        H  0.93675401  0.03311968  0.60890296     0.14500
H214        H  0.94014714  0.97109345  0.56453170     0.00300
H215        H  0.89498981  0.03003175  0.55111805     0.14800
H216        H  0.88397219  0.99247679  0.61083927     0.14600
C217        C  0.08975136  0.01893444  0.41597818     0.86400
C218        C  0.06336863  0.01868014  0.41031826    -0.53800
C219        C  0.05098605  0.00108014  0.42072986     0.09300
C220        C  0.06642555  0.98523418  0.43644810     0.20300
C221        C  0.09005780  0.01976020  0.44304150    -0.54500
C222        C  0.07818852  0.00213211  0.45396843     0.09400
C223        C  0.09816087  0.99420434  0.40973308    -0.54100
C224        C  0.08638702  0.97636103  0.42036515     0.10000
H225        H  0.05463706  0.03160684  0.39983828     0.14500
H226        H  0.05653253  0.97104075  0.44511331     0.00300
H227        H  0.09910193  0.03325522  0.45278573     0.14800
H228        H  0.11271865  0.99108795  0.39798655     0.14600
C229        C  0.08588595  0.97536344  0.59496130     0.86400
C230        C  0.05929166  0.97465984  0.59952251    -0.53800
C231        C  0.04654345  0.99149434  0.58812833     0.09300
C232        C  0.06190129  0.00754688  0.57261992     0.20300
C233        C  0.08758546  0.97401190  0.56798056    -0.54500
C234        C  0.07537431  0.99081203  0.55617469     0.09400
C235        C  0.09266239  0.00050713  0.60102015    -0.54100
C236        C  0.08066837  0.01758458  0.58931329     0.10000
H237        H  0.05079130  0.96182618  0.61026229     0.14500
H238        H  0.05164888  0.02092038  0.56306411     0.00300
H239        H  0.09796563  0.96092493  0.55891210     0.14800
H240        H  0.10649023  0.00449027  0.61330574     0.14600
C241        C  0.01071691  0.57189066  0.90943620     0.86400
C242        C  0.00976700  0.57507028  0.93634091    -0.53800
C243        C  0.99103567  0.56503030  0.94716669     0.09300
C244        C  0.97412028  0.55324075  0.92979063     0.20300
C245        C  0.00753150  0.54552600  0.90498736    -0.54500
C246        C  0.98901360  0.53525468  0.91604040     0.09400
C247        C  0.98730814  0.58293400  0.90218210    -0.54100
C248        C  0.96808350  0.57248971  0.91160775     0.10000
H249        H  0.02243062  0.58517050  0.94606059     0.14500
H250        H  0.95882622  0.54578820  0.93891556     0.00300
H251        H  0.01909440  0.53592196  0.89340461     0.14800
H252        H  0.98551433  0.59799659  0.89087715     0.14600
C253        C  0.95063204  0.39593042  0.91727478     0.86400
C254        C  0.95297723  0.39312278  0.94398389    -0.53800
C255        C  0.97199902  0.40364992  0.95357062     0.09300
C256        C  0.98766228  0.41586792  0.93521220     0.20300
C257        C  0.95272878  0.42244953  0.91238845    -0.54500
C258        C  0.97169410  0.43338223  0.92191210     0.09400
C259        C  0.97395843  0.38660385  0.90753329    -0.54100
C260        C  0.99342200  0.39679599  0.91677045     0.10000
H261        H  0.94039578  0.38367460  0.95454575     0.14500
H262        H  0.00311421  0.42399342  0.94337940     0.00300
H263        H  0.94045438  0.43151066  0.90113840     0.14800
H264        H  0.97558728  0.37508592  0.89270580     0.14600
C265        C  0.01038284  0.39799961  0.09211625     0.86400
C266        C  0.00898775  0.39474395  0.06525683    -0.53800
C267        C  0.99017435  0.40506718  0.05474802     0.09300
C268        C  0.97370825  0.41739272  0.07239332     0.20300
C269        C  0.00758664  0.42451248  0.09647386    -0.54500
C270        C  0.98899686  0.43515746  0.08581311     0.09400
C271        C  0.98683991  0.38751134  0.09980549    -0.54100
C272        C  0.96761386  0.39839282  0.09077079     0.10000
H273        H  0.02153501  0.38452834  0.05534989     0.14500
H274        H  0.95839351  0.42517527  0.06353747     0.00300
H275        H  0.01940835  0.43389917  0.10785307     0.14800
H276        H  0.98477393  0.37221144  0.11063732     0.14600
C277        C  0.95102300  0.57536894  0.08374824     0.86400
C278        C  0.95410025  0.57739171  0.05715666    -0.53800
C279        C  0.97340253  0.56658699  0.04839973     0.09300
C280        C  0.98839364  0.55447470  0.06748903     0.20300
C281        C  0.95270735  0.54894740  0.08945610    -0.54500
C282        C  0.97183348  0.53744100  0.08067588     0.09400
C283        C  0.97402928  0.58465671  0.09398317    -0.54100
C284        C  0.99369457  0.57383085  0.08576738     0.10000
H285        H  0.94180499  0.58663513  0.04603917     0.14500
H286        H  0.00406523  0.54597792  0.05997475     0.00300
H287        H  0.94007526  0.54048268  0.10072077     0.14800
H288        H  0.97506636  0.59678749  0.10840942     0.14600
O289        O  0.11698126  0.36941526  0.13670747    -0.57900
C290        C  0.18327634  0.36970877  0.15310177     0.74700
O291        O  0.14435776  0.42588446  0.18779698    -0.59000
C292        C  0.09784914  0.37911951  0.14223620     0.74700
C293        C  0.13107773  0.37213009  0.21924865     0.77100
Cd294      Cd  0.13883738  0.38653577  0.17086064     1.37500
O295        O  0.16806115  0.35533068  0.16023302    -0.57900
O296        O  0.11774790  0.36566645  0.20287461    -0.56700
C297        C  0.13921535  0.43672382  0.16919098     0.77100
O298        O  0.14860398  0.38400858  0.21321814    -0.59100
O299        O  0.17743258  0.39100357  0.15335013    -0.57500
O300        O  0.09762072  0.39042727  0.16123461    -0.57500
O301        O  0.13484010  0.42443257  0.15138879    -0.56700
O302        O  0.12477028  0.58584411  0.20182995    -0.57900
C303        C  0.13213941  0.53693301  0.16391158     0.74700
O304        O  0.10239628  0.57550140  0.12378829    -0.59000
C305        C  0.11686003  0.60635842  0.20431308     0.74700
C306        C  0.17120363  0.60717045  0.14528811     0.77100
Cd307      Cd  0.12670306  0.58647870  0.15885613     1.37500
O308        O  0.12029953  0.54882864  0.17833614    -0.57900
O309        O  0.16927499  0.59137935  0.16058466    -0.56700
C310        C  0.08438594  0.58658174  0.13022190     0.77100
O311        O  0.15233258  0.61399160  0.13598993    -0.59100
O312        O  0.14169295  0.54787470  0.14722001    -0.57500
O313        O  0.11362464  0.61804199  0.18573064    -0.57500
O314        O  0.08669839  0.59915749  0.14824957    -0.56700
O315        O  0.27862675  0.63720698  0.90092288    -0.57900
C316        C  0.31894387  0.64373869  0.95174478     0.74700
O317        O  0.34968326  0.60877678  0.88306179    -0.59000
C318        C  0.27655028  0.62601978  0.88192130     0.74700
C319        C  0.33660730  0.68143382  0.88280222     0.77100
Cd320      Cd  0.32121190  0.63684304  0.90185184     1.37500
O321        O  0.30109411  0.63849615  0.93995579    -0.57900
O322        O  0.31665998  0.67329950  0.87848762    -0.56700
C323        C  0.34615373  0.59279225  0.89804471     0.77100
O324        O  0.34993893  0.66846654  0.89476565    -0.59100
O325        O  0.33748094  0.64711312  0.94026996    -0.57500
O326        O  0.29526991  0.62034255  0.87155136    -0.57500
O327        O  0.33212703  0.59768261  0.91434423    -0.56700
O328        O  0.34091205  0.66751537  0.12355626    -0.57900
C329        C  0.33858296  0.59840833  0.10783170     0.74700
O330        O  0.27013607  0.64729194  0.10241877    -0.59000
C331        C  0.32958616  0.68620596  0.11999245     0.74700
C332        C  0.31495299  0.64481097  0.05281850     0.77100
Cd333      Cd  0.31265085  0.64176056  0.10290400     1.37500
O334        O  0.33468007  0.61081193  0.12585482    -0.57900
O335        O  0.33173325  0.65135947  0.06554326    -0.56700
C336        C  0.26531118  0.63371132  0.11915707     0.77100
O337        O  0.29698579  0.63741286  0.06326842    -0.59100
O338        O  0.33146337  0.60660187  0.08860041    -0.57500
O339        O  0.31035457  0.68419266  0.10959788    -0.57500
O340        O  0.28256064  0.62431824  0.12933347    -0.56700
O341        O  0.16680166  0.60973041  0.85610304    -0.57900
C342        C  0.09761317  0.59252164  0.85861964     0.74700
O343        O  0.13535085  0.58914566  0.78826881    -0.59000
C344        C  0.18529284  0.60171529  0.84702980     0.74700
C345        C  0.14194974  0.53692711  0.83458634     0.77100
Cd346      Cd  0.13992286  0.58717847  0.83120101     1.37500
O347        O  0.11655400  0.60145666  0.86544973    -0.57900
O348        O  0.14430001  0.55000118  0.85225445    -0.56700
C349        C  0.13252898  0.61103928  0.78688693     0.77100
O350        O  0.13988673  0.54702208  0.81495804    -0.59100
O351        O  0.09810093  0.58277524  0.83876217    -0.57500
O352        O  0.18287843  0.58743679  0.83031895    -0.57500
O353        O  0.13350416  0.62213848  0.80602455    -0.56700
O354        O  0.11433822  0.42727278  0.83870378    -0.57900
C355        C  0.11791971  0.37032271  0.79901188     0.74700
O356        O  0.15630932  0.37344084  0.87533522    -0.59000
C357        C  0.13395901  0.43660419  0.84190833     0.74700
C358        C  0.08511307  0.38228025  0.87467373     0.77100
Cd359      Cd  0.12696536  0.38685973  0.84585013     1.37500
O360        O  0.11874109  0.39188820  0.80390327    -0.57900
O361        O  0.08832490  0.37004511  0.85648238    -0.56700
C362        C  0.17115193  0.36642722  0.86043120     0.77100
O363        O  0.10239875  0.39406501  0.88148403    -0.59100
O364        O  0.12107555  0.35614384  0.81579567    -0.57500
O365        O  0.15069782  0.42293938  0.84642728    -0.57500
O366        O  0.16494151  0.36740734  0.83926549    -0.56700
O367        O  0.34989084  0.35014660  0.89661907    -0.57900
C368        C  0.32882360  0.28318261  0.88222890     0.74700
O369        O  0.29680167  0.31452793  0.93689285    -0.59000
C370        C  0.33989853  0.36984278  0.89513378     0.74700
C371        C  0.26511454  0.33793433  0.88509121     0.77100
Cd372      Cd  0.31248648  0.32772131  0.89923698     1.37500
O373        O  0.32746482  0.30049081  0.86839955    -0.57900
O374        O  0.28057187  0.33299928  0.86997468    -0.56700
C375        C  0.31327884  0.32276169  0.94899883     0.77100
O376        O  0.27142805  0.33728743  0.90626720    -0.59100
O377        O  0.32266058  0.28677654  0.90310079    -0.57500
O378        O  0.31807963  0.36958578  0.89232645    -0.57500
O379        O  0.32942656  0.33302171  0.93802769    -0.56700
O380        O  0.27922892  0.34815039  0.09672593    -0.57900
C381        C  0.31814571  0.32688469  0.04934831     0.74700
O382        O  0.32871992  0.38046057  0.08619325    -0.59000
C383        C  0.27593876  0.34827022  0.11857152     0.74700
C384        C  0.33949049  0.29723636  0.11870174     0.77100
Cd385      Cd  0.32127532  0.33937916  0.09767005     1.37500
O386        O  0.30169664  0.32297109  0.06353740    -0.57900
O387        O  0.32837734  0.29732748  0.09965561    -0.56700
C388        C  0.34914758  0.38181643  0.09425743     0.77100
O389        O  0.34286673  0.31689237  0.12828760    -0.59100
O390        O  0.33659480  0.33537179  0.05788123    -0.57500
O391        O  0.29384097  0.34508091  0.13109144    -0.57500
O392        O  0.35652459  0.36405107  0.10526103    -0.56700
O393        O  0.38677279  0.12083881  0.13519725    -0.57900
C394        C  0.37361017  0.14529230  0.19672568     0.74700
O395        O  0.42978438  0.17775083  0.14349467    -0.59000
C396        C  0.38872488  0.12725791  0.11408641     0.74700
C397        C  0.37225083  0.20591534  0.14596656     0.77100
Cd398      Cd  0.39201345  0.16012402  0.15252928     1.37500
O399        O  0.36136223  0.14373139  0.17836201    -0.57900
O400        O  0.36405096  0.18828249  0.13543787    -0.56700
C401        C  0.44176461  0.16198241  0.15332336     0.77100
O402        O  0.38864051  0.20202835  0.16018757    -0.59100
O403        O  0.39355553  0.15425929  0.19465895    -0.57500
O404        O  0.39050498  0.14900267  0.11054589    -0.57500
O405        O  0.43073355  0.14575730  0.16340007    -0.56700
O406        O  0.58928667  0.18900804  0.14664791    -0.57900
C407        C  0.54144512  0.15418290  0.14817116     0.74700
O408        O  0.58148075  0.10742266  0.12534708    -0.59000
C409        C  0.60767552  0.19311625  0.13521101     0.74700
C410        C  0.61101194  0.13385493  0.18959466     0.77100
Cd411      Cd  0.59049714  0.14610750  0.14426541     1.37500
O412        O  0.55435339  0.16722622  0.13590287    -0.57900
O413        O  0.62323672  0.13306700  0.17108898    -0.56700
C414        C  0.58857320  0.11255734  0.10503186     0.77100
O415        O  0.58991631  0.13928886  0.18677044    -0.59100
O416        O  0.55125762  0.13738402  0.15872755    -0.57500
O417        O  0.61900259  0.17532195  0.12824925    -0.57500
O418        O  0.59847497  0.13219291  0.10318646    -0.56700
O419        O  0.62940599  0.89301176  0.29397802    -0.57900
C420        C  0.64419765  0.94404089  0.33449331     0.74700
O421        O  0.60693816  0.88013726  0.36553078    -0.59000
C422        C  0.62412489  0.87163118  0.29283130     0.74700
C423        C  0.68137672  0.88019289  0.35419158     0.77100
Cd424      Cd  0.63623069  0.89482980  0.33625344     1.37500
O425        O  0.64794342  0.93109511  0.31692254    -0.57900
O426        O  0.67837509  0.88770827  0.33363988    -0.56700
C427        C  0.59191374  0.89576479  0.36068648     0.77100
O428        O  0.66314702  0.87807943  0.36654054    -0.59100
O429        O  0.63749439  0.93396987  0.35302727    -0.57500
O430        O  0.62484027  0.86034297  0.31192659    -0.57500
O431        O  0.59762000  0.91035807  0.34509834    -0.56700
O432        O  0.67897974  0.12287981  0.34697438    -0.57900
C433        C  0.61008427  0.10132060  0.36369995     0.74700
O434        O  0.63576960  0.09001018  0.29159516    -0.59000
C435        C  0.69522731  0.10782469  0.34734720     0.74700
C436        C  0.65013675  0.04471581  0.33228469     0.77100
Cd437      Cd  0.64924801  0.09487514  0.33224487     1.37500
O438        O  0.63046919  0.09960075  0.37180448    -0.57900
O439        O  0.64353784  0.05638321  0.34986538    -0.56700
C440        C  0.63929813  0.11068714  0.28466945     0.77100
O441        O  0.65686288  0.05628171  0.31464527    -0.59100
O442        O  0.60842194  0.10383901  0.34175078    -0.57500
O443        O  0.69036162  0.08761794  0.34004610    -0.57500
O444        O  0.64729370  0.12467165  0.29989129    -0.56700
O445        O  0.60008039  0.84472007  0.18419697    -0.57900
C446        C  0.58864537  0.84019660  0.11399222     0.74700
O447        O  0.58465246  0.77122235  0.15900880    -0.59000
C448        C  0.59964905  0.83231117  0.20257610     0.74700
C449        C  0.53358520  0.81506359  0.16275909     0.77100
Cd450      Cd  0.58350484  0.81453640  0.15798139     1.37500
O451        O  0.56927861  0.83372665  0.12219408    -0.57900
O452        O  0.54634565  0.83035603  0.17221941    -0.56700
C453        C  0.60395991  0.76931797  0.14849652     0.77100
O454        O  0.54401606  0.79882817  0.15184350    -0.59100
O455        O  0.60618804  0.83615852  0.12682500    -0.57500
O456        O  0.59301202  0.81142537  0.20008354    -0.57500
O457        O  0.61432858  0.78812859  0.14344450    -0.56700
O458        O  0.42241000  0.80655441  0.14526288    -0.57900
C459        C  0.36342461  0.77816337  0.14376869     0.74700
O460        O  0.35599381  0.84903132  0.17399486    -0.59000
C461        C  0.43313397  0.82023182  0.15878429     0.74700
C462        C  0.38479802  0.85160001  0.10958873     0.77100
Cd463      Cd  0.38352421  0.82357477  0.15178803     1.37500
O464        O  0.38399588  0.78083394  0.15106666    -0.57900
O465        O  0.38032297  0.82999706  0.10946879    -0.56700
C466        C  0.36158638  0.84089747  0.19385828     0.77100
O467        O  0.38644472  0.86118929  0.12944748    -0.59100
O468        O  0.35131296  0.79656992  0.14118324    -0.57500
O469        O  0.42089459  0.83523329  0.16948172    -0.57500
O470        O  0.37627947  0.82439185  0.19401242    -0.56700
O471        O  0.35259139  0.89228828  0.37195962    -0.57900
C472        C  0.28694623  0.87273350  0.34871910     0.74700
O473        O  0.34351864  0.92684740  0.31652105    -0.59000
C474        C  0.37178274  0.88472615  0.36421020     0.74700
C475        C  0.33711190  0.87397498  0.28604622     0.77100
Cd476      Cd  0.33181750  0.88944695  0.33386430     1.37500
O477        O  0.30455787  0.85935699  0.34933977    -0.57900
O478        O  0.34380356  0.86155181  0.30318529    -0.56700
C479        C  0.33517402  0.93918974  0.33289368     0.77100
O480        O  0.32737957  0.89321658  0.29105444    -0.59100
O481        O  0.29005314  0.89307238  0.34077519    -0.57500
O482        O  0.37154104  0.87607734  0.34382383    -0.57500
O483        O  0.32490039  0.92856847  0.34932286    -0.56700
O484        O  0.34353340  0.08969802  0.29171531    -0.57900
C485        C  0.34199271  0.03948776  0.33447529     0.74700
O486        O  0.37506658  0.10632514  0.36327305    -0.59000
C487        C  0.35235704  0.10958807  0.28846060     0.74700
C488        C  0.30231401  0.10591781  0.35145753     0.77100
Cd489      Cd  0.34694174  0.08907385  0.33429509     1.37500
O490        O  0.34937234  0.05048858  0.31676174    -0.57900
O491        O  0.30422024  0.09141958  0.33491404    -0.56700
C492        C  0.39147790  0.09211354  0.35883015     0.77100
O493        O  0.32119187  0.11286198  0.36050984    -0.59100
O494        O  0.33672623  0.05152280  0.35236536    -0.57500
O495        O  0.35811456  0.12081324  0.30663053    -0.57500
O496        O  0.38710092  0.07681684  0.34354659    -0.56700
O497        O  0.14774389  0.11316703  0.41704187    -0.57900
C498        C  0.14665359  0.19325519  0.38441178     0.74700
O499        O  0.18385897  0.15270359  0.43943928    -0.59000
C500        C  0.14008708  0.10482009  0.39811269     0.74700
C501        C  0.21041146  0.13509410  0.38314768     0.77100
Cd502      Cd  0.16493116  0.14865112  0.40126196     1.37500
O503        O  0.13402222  0.17525336  0.38583352    -0.57900
O504        O  0.19187044  0.13064687  0.37204858    -0.56700
C505        C  0.16522079  0.15389434  0.45122114     0.77100
O506        O  0.20787060  0.14649473  0.40193997    -0.59100
O507        O  0.16798882  0.19030497  0.38886675    -0.57500
O508        O  0.14306416  0.11720800  0.37991205    -0.57500
O509        O  0.14637111  0.15400135  0.43980186    -0.56700
O510        O  0.20097045  0.15110605  0.60804887    -0.57900
C511        C  0.16305499  0.15041808  0.55202722     0.74700
O512        O  0.12358786  0.12273114  0.61344582    -0.59000
C513        C  0.20409877  0.13400243  0.62171794     0.74700
C514        C  0.14149112  0.18777176  0.62102212     0.77100
Cd515      Cd  0.15927921  0.14460580  0.60167487     1.37500
O516        O  0.18094255  0.14846718  0.56478530    -0.57900
O517        O  0.14640128  0.18523848  0.59962581    -0.56700
C518        C  0.12873343  0.10464774  0.60170389     0.77100
O519        O  0.14519162  0.17029488  0.63415844    -0.59100
O520        O  0.14354296  0.15023342  0.56230821    -0.57500
O521        O  0.18620224  0.12229198  0.62705984    -0.57500
O522        O  0.14826150  0.10467892  0.59148613    -0.56700
O523        O  0.85142324  0.34118332  0.67260379    -0.57900
C524        C  0.88359571  0.36154057  0.60217537     0.74700
O525        O  0.91872379  0.30745696  0.64678281    -0.59000
C526        C  0.86540201  0.34503706  0.68926764     0.74700
C527        C  0.86224575  0.28494455  0.63330637     0.77100
Cd528      Cd  0.88251257  0.33036309  0.64305186     1.37500
O529        O  0.87069006  0.36634529  0.61955497    -0.57900
O530        O  0.85148165  0.30357978  0.62795275    -0.56700
C531        C  0.93186555  0.32503239  0.64908197     0.77100
O532        O  0.88186281  0.28752881  0.64285999    -0.59100
O533        O  0.89416620  0.34217735  0.60314479    -0.57500
O534        O  0.88671571  0.34265089  0.68439581    -0.57500
O535        O  0.92207987  0.34492186  0.64891747    -0.56700
O536        O  0.08727702  0.33101491  0.61708547    -0.57900
C537        C  0.09755107  0.33761218  0.70534028     0.74700
O538        O  0.04455672  0.30214340  0.65609835    -0.59000
C539        C  0.08702288  0.35306281  0.61884245     0.74700
C540        C  0.10403705  0.27714284  0.65036116     0.77100
Cd541      Cd  0.08279081  0.32234698  0.65914917     1.37500
O542        O  0.10999820  0.34138986  0.68743679    -0.57900
O543        O  0.11609791  0.29565416  0.64959336    -0.56700
C544        C  0.03225249  0.32044668  0.65775910     0.77100
O545        O  0.08293993  0.27953587  0.65621007    -0.59100
O546        O  0.07910811  0.32610954  0.70200423    -0.57500
O547        O  0.08757685  0.36121933  0.63939146    -0.57500
O548        O  0.04325949  0.33934633  0.66057276    -0.56700
O549        O  0.84387835  0.17210335  0.62000095    -0.57900
C550        C  0.84542762  0.10183538  0.60884037     0.74700
O551        O  0.77594769  0.13232526  0.59832732    -0.59000
C552        C  0.83255537  0.19000300  0.61346292     0.74700
C553        C  0.82055292  0.14619595  0.55112950     0.77100
Cd554      Cd  0.81708611  0.14315100  0.60119371     1.37500
O555        O  0.85004987  0.12075016  0.61944760    -0.57900
O556        O  0.83606027  0.13634125  0.56333496    -0.56700
C557        C  0.77118621  0.13323115  0.61988511     0.77100
O558        O  0.80367286  0.15515110  0.56217433    -0.59100
O559        O  0.82699609  0.10175448  0.59675920    -0.57500
O560        O  0.81415552  0.18603463  0.60213515    -0.57500
O561        O  0.78792143  0.13831388  0.63338213    -0.56700
O562        O  0.79096475  0.13077278  0.40289272    -0.57900
C563        C  0.82780507  0.14186798  0.45048191     0.74700
O564        O  0.87014085  0.11542253  0.41223624    -0.59000
C565        C  0.78798165  0.12553866  0.38163219     0.74700
C566        C  0.84732933  0.17873090  0.37947083     0.77100
Cd567      Cd  0.83324577  0.13510795  0.40107675     1.37500
O568        O  0.81885093  0.12461647  0.44002043    -0.57900
O569        O  0.83185293  0.17748904  0.39513369    -0.56700
C570        C  0.86554344  0.09582638  0.40316119     0.77100
O571        O  0.85629742  0.15948783  0.37301604    -0.59100
O572        O  0.83901640  0.15621148  0.43795807    -0.57500
O573        O  0.80608108  0.12461990  0.36895160    -0.57500
O574        O  0.84704481  0.09487156  0.39120612    -0.56700
O575        O  0.87561095  0.35360863  0.37177436    -0.57900
C576        C  0.87482863  0.33702977  0.30406419     0.74700
O577        O  0.93242110  0.30328863  0.35029931    -0.59000
C578        C  0.88775581  0.34991152  0.38991723     0.74700
C579        C  0.87567230  0.27271195  0.35521875     0.77100
Cd580      Cd  0.89278143  0.32017018  0.34867440     1.37500
O581        O  0.86223657  0.33729361  0.32228204    -0.57900
O582        O  0.86655360  0.28979744  0.36599781    -0.56700
C583        C  0.94293795  0.32253750  0.34779617     0.77100
O584        O  0.89182542  0.27767811  0.34107193    -0.59100
O585        O  0.89515988  0.32890604  0.30654723    -0.57500
O586        O  0.90073376  0.33202433  0.38925805    -0.57500
O587        O  0.93036788  0.34048375  0.34461606    -0.56700
O588        O  0.10407372  0.36425311  0.33177349    -0.57900
C589        C  0.09650619  0.36361757  0.40273881     0.74700
O590        O  0.05320981  0.32318628  0.37464704    -0.59000
C591        C  0.11017666  0.34979181  0.31611203     0.74700
C592        C  0.11156282  0.28732656  0.36881543     0.77100
Cd593      Cd  0.09252584  0.33381206  0.36114281     1.37500
O594        O  0.10981050  0.34620294  0.39946330    -0.57900
O595        O  0.12479427  0.30499083  0.36732790    -0.56700
C596        C  0.04298547  0.32796137  0.35565084     0.77100
O597        O  0.08993503  0.29128647  0.36713516    -0.59100
O598        O  0.08350949  0.36907395  0.38575707    -0.57500
O599        O  0.10972677  0.32849106  0.32186925    -0.57500
O600        O  0.05567091  0.33471718  0.33888307    -0.56700
O601        O  0.61034369  0.13343413  0.82288848    -0.57900
C602        C  0.59347409  0.12710952  0.89074518     0.74700
O603        O  0.59331680  0.20143494  0.84722796    -0.59000
C604        C  0.60288672  0.14362323  0.80465450     0.74700
C605        C  0.53855132  0.15880846  0.85071981     0.77100
Cd606      Cd  0.58868798  0.15877856  0.85128916     1.37500
O607        O  0.60624056  0.12470493  0.87276450    -0.57900
O608        O  0.55025038  0.14310741  0.84041187    -0.56700
C609        C  0.61030516  0.20353590  0.86104264     0.77100
O610        O  0.54996152  0.17475901  0.86077482    -0.59100
O611        O  0.57977902  0.14442652  0.89087438    -0.57500
O612        O  0.58969276  0.16104031  0.80799518    -0.57500
O613        O  0.61845055  0.18475505  0.86950426    -0.56700
O614        O  0.42546505  0.16776996  0.86395084    -0.57900
C615        C  0.36739909  0.19160464  0.86381302     0.74700
O616        O  0.36205908  0.12395628  0.83176543    -0.59000
C617        C  0.43838828  0.15310592  0.85359815     0.74700
C618        C  0.38651229  0.11761600  0.89855465     0.77100
Cd619      Cd  0.38899571  0.14657482  0.85708546     1.37500
O620        O  0.38878200  0.18806651  0.86766982    -0.57900
O621        O  0.39808653  0.11131633  0.88081838    -0.56700
C622        C  0.37008676  0.13171931  0.81261570     0.77100
O623        O  0.37419270  0.13582020  0.89621210    -0.59100
O624        O  0.35575171  0.17410035  0.85711509    -0.57500
O625        O  0.42842474  0.13577516  0.84421308    -0.57500
O626        O  0.38695331  0.14577648  0.81415675    -0.56700
O627        O  0.67525302  0.87077470  0.64437263    -0.57900
C628        C  0.60339490  0.88562930  0.63865142     0.74700
O629        O  0.63565565  0.89215919  0.70905833    -0.59000
C630        C  0.69242856  0.87965692  0.65500653     0.74700
C631        C  0.64249567  0.94253366  0.66725633     0.77100
Cd632      Cd  0.64476531  0.89211021  0.66710814     1.37500
O633        O  0.62239723  0.89173783  0.62930261    -0.57900
O634        O  0.64615467  0.93098532  0.64876924    -0.56700
C635        C  0.63467283  0.87019732  0.71171066     0.77100
O636        O  0.64060953  0.93085941  0.68597886    -0.59100
O637        O  0.60442744  0.87949100  0.65988402    -0.57500
O638        O  0.68762332  0.89326628  0.67174187    -0.57500
O639        O  0.63865772  0.85793707  0.69360302    -0.56700
O640        O  0.63466810  0.09405050  0.70610864    -0.57900
C641        C  0.63352511  0.04317850  0.66493653     0.74700
O642        O  0.61253831  0.10557251  0.62524832    -0.59000
C643        C  0.62253784  0.11214663  0.70980567     0.74700
C644        C  0.67734759  0.10959656  0.64941154     0.77100
Cd645      Cd  0.63114263  0.09340133  0.66305049     1.37500
O646        O  0.62957104  0.05528874  0.68303783    -0.57900
O647        O  0.66063120  0.12388403  0.65201591    -0.56700
C648        C  0.59226861  0.09875213  0.63055579     0.77100
O649        O  0.67254203  0.08834143  0.65277467    -0.59100
O650        O  0.63601498  0.05424428  0.64591483    -0.57500
O651        O  0.61470063  0.12241458  0.69176259    -0.57500
O652        O  0.58966570  0.09071536  0.65101370    -0.56700
O653        O  0.58623454  0.77763979  0.84042050    -0.57900
C654        C  0.53708211  0.81885540  0.84699430     0.74700
O655        O  0.59434017  0.85594767  0.87299212    -0.59000
C656        C  0.60457236  0.77251478  0.85157037     0.74700
C657        C  0.60612977  0.83634531  0.80337403     0.77100
Cd658      Cd  0.58738673  0.82000140  0.84808949     1.37500
O659        O  0.54921037  0.80083765  0.85114366    -0.57900
O660        O  0.58462387  0.83390607  0.80723915    -0.56700
C661        C  0.59157829  0.84526465  0.89223434     0.77100
O662        O  0.61939528  0.83208633  0.82057799    -0.59100
O663        O  0.54823865  0.83749802  0.84308735    -0.57500
O664        O  0.61571473  0.78954242  0.86019440    -0.57500
O665        O  0.58962184  0.82334039  0.89087504    -0.56700
O666        O  0.37795018  0.82380473  0.88755051    -0.57900
C667        C  0.36945020  0.83581246  0.80012946     0.74700
O668        O  0.42430909  0.79902908  0.85046736    -0.59000
C669        C  0.38464602  0.84474433  0.88928997     0.74700
C670        C  0.36554341  0.77389398  0.85369458     0.77100
Cd671      Cd  0.38640162  0.81893712  0.84538030     1.37500
O672        O  0.36074905  0.84339232  0.81910210    -0.57900
O673        O  0.35479540  0.79264190  0.85875111    -0.56700
C674        C  0.43639903  0.81674309  0.84534536     0.77100
O675        O  0.38494730  0.77597000  0.84337774    -0.59100
O676        O  0.38495928  0.82025105  0.80221177    -0.57500
O677        O  0.38978695  0.85487691  0.87027204    -0.57500
O678        O  0.42537285  0.83496155  0.83943513    -0.56700
O679        O  0.35656720  0.92603783  0.67827770    -0.57900
C680        C  0.35153129  0.87006579  0.70579972     0.74700
O681        O  0.32195105  0.85718848  0.64250479    -0.59000
C682        C  0.34632250  0.93869925  0.66330508     0.74700
C683        C  0.38835052  0.88886408  0.62845374     0.77100
Cd684      Cd  0.34749404  0.88887766  0.65856830     1.37500
O685        O  0.33993346  0.88836732  0.70124512    -0.57900
O686        O  0.36844836  0.89373679  0.62041611    -0.56700
C687        C  0.30411638  0.87024779  0.64121395     0.77100
O688        O  0.38885545  0.88106114  0.64916909    -0.59100
O689        O  0.36069022  0.85984020  0.68834460    -0.57500
O690        O  0.33641470  0.92840079  0.64652459    -0.57500
O691        O  0.30654258  0.89112419  0.64783975    -0.56700
O692        O  0.37997836  0.10060940  0.66673431    -0.57900
C693        C  0.29514734  0.10693114  0.65515272     0.74700
O694        O  0.34658880  0.04989334  0.68748485    -0.59000
C695        C  0.38132245  0.09755671  0.64485990     0.74700
C696        C  0.34315491  0.10487102  0.71882229     0.77100
Cd697      Cd  0.33919861  0.08889407  0.67106881     1.37500
O698        O  0.31361675  0.11865874  0.65240272    -0.57900
O699        O  0.35324261  0.11521906  0.70203609    -0.56700
C700        C  0.34206676  0.03891663  0.66885456     0.77100
O701        O  0.33026968  0.08786534  0.71327637    -0.59100
O702        O  0.29718667  0.08741105  0.66525673    -0.57500
O703        O  0.36252199  0.09251343  0.63454336    -0.57500
O704        O  0.33615945  0.05100154  0.65131071    -0.56700
O705        O  0.84687385  0.59660210  0.13116299    -0.57900
C706        C  0.78485985  0.60603036  0.15632107     0.74700
O707        O  0.84461942  0.55097519  0.18238452    -0.59000
C708        C  0.86799488  0.59509846  0.13721260     0.74700
C709        C  0.83848184  0.61181168  0.21567496     0.77100
Cd710      Cd  0.83027103  0.58989321  0.17077409     1.37500
O711        O  0.80331142  0.61545429  0.14868402    -0.57900
O712        O  0.84104109  0.62298992  0.19669926    -0.56700
C713        C  0.82979483  0.53944079  0.17091894     0.77100
O714        O  0.83132150  0.59102157  0.21390345    -0.59100
O715        O  0.78735516  0.59022957  0.17164085    -0.57500
O716        O  0.87177454  0.59299468  0.15890158    -0.57500
O717        O  0.81478170  0.55109594  0.15968929    -0.56700
O718        O  0.83136782  0.42613876  0.18674017    -0.57900
C719        C  0.84670342  0.36981636  0.21186907     0.74700
O720        O  0.80729862  0.36365368  0.14265815    -0.59000
C721        C  0.83253222  0.43871236  0.16855088     0.74700
C722        C  0.87764791  0.38524047  0.13684431     0.77100
Cd723      Cd  0.83533322  0.38854502  0.16575189     1.37500
O724        O  0.84705388  0.39140725  0.20706018    -0.57900
O725        O  0.85950476  0.39552104  0.12966763    -0.56700
C726        C  0.78898097  0.37270412  0.15118359     0.77100
O727        O  0.87556591  0.37434483  0.15604464    -0.59100
O728        O  0.84076126  0.35628881  0.19532514    -0.57500
O729        O  0.83451465  0.42815427  0.14922157    -0.57500
O730        O  0.79225040  0.38815595  0.16656599    -0.56700
O731        O  0.68351324  0.36011933  0.90196898    -0.57900
C732        C  0.64481472  0.34032231  0.95244926     0.74700
O733        O  0.60331673  0.36144543  0.89649102    -0.59000
C734        C  0.68717120  0.35761462  0.88028213     0.74700
C735        C  0.63528090  0.29800085  0.88679598     0.77100
Cd736      Cd  0.64345549  0.34531232  0.90245423     1.37500
O737        O  0.66275832  0.34573600  0.94084458    -0.57900
O738        O  0.64899505  0.30279297  0.90336819    -0.56700
C739        C  0.60917513  0.38270921  0.89733899     0.77100
O740        O  0.62572061  0.31525207  0.87665246    -0.59100
O741        O  0.62633390  0.33703883  0.94095941    -0.57500
O742        O  0.67022343  0.35017179  0.86823304    -0.57500
O743        O  0.63071115  0.38660641  0.89950798    -0.56700
O744        O  0.62537795  0.36758442  0.12510890    -0.57900
C745        C  0.63511073  0.28951629  0.11741230     0.74700
O746        O  0.66616038  0.34016384  0.06384898    -0.59000
C747        C  0.62209546  0.37995425  0.10691531     0.74700
C748        C  0.69539082  0.34734052  0.12152791     0.77100
Cd749      Cd  0.64931513  0.33662631  0.10316079     1.37500
O750        O  0.62301061  0.30727418  0.12292545    -0.57900
O751        O  0.67709484  0.35258432  0.13281225    -0.56700
C752        C  0.64773867  0.33459581  0.05308962     0.77100
O753        O  0.69242091  0.33682644  0.10233243    -0.59100
O754        O  0.65370294  0.29372349  0.10644499    -0.57500
O755        O  0.63024086  0.37163703  0.08817282    -0.57500
O756        O  0.63027442  0.32912656  0.06547804    -0.56700
O757        O  0.64943043  0.67785266  0.89108825    -0.57900
C758        C  0.62007825  0.59407915  0.89282835     0.74700
O759        O  0.69176538  0.63380169  0.90180320    -0.59000
C760        C  0.63511636  0.67883142  0.87435932     0.74700
C761        C  0.64852375  0.63965380  0.94595695     0.77100
Cd762      Cd  0.64947504  0.63528851  0.89591390     1.37500
O763        O  0.61227427  0.61343290  0.90010563    -0.57900
O764        O  0.63455514  0.65106086  0.93317256    -0.56700
C765        C  0.69726113  0.62817258  0.88112258     0.77100
O766        O  0.66298339  0.62650599  0.93562558    -0.59100
O767        O  0.64070599  0.59423607  0.88501699    -0.57500
O768        O  0.62779956  0.65945356  0.86661113    -0.57500
O769        O  0.68064822  0.62626710  0.86664853    -0.56700
O770        O  0.69074624  0.63648941  0.09977455    -0.57900
C771        C  0.64839039  0.63990041  0.04692820     0.74700
O772        O  0.61025023  0.61351522  0.10229497    -0.59000
C773        C  0.69307046  0.62549119  0.11882918     0.74700
C774        C  0.63542147  0.67843281  0.11732729     0.77100
Cd775      Cd  0.64841265  0.63413331  0.09709042     1.37500
O776        O  0.66442777  0.62893334  0.05744176    -0.57900
O777        O  0.64974471  0.67645135  0.10063903    -0.56700
C778        C  0.61814618  0.59364064  0.09645209     0.77100
O779        O  0.62734111  0.65955756  0.12566295    -0.59100
O780        O  0.63268424  0.64882578  0.05966338    -0.57500
O781        O  0.67442453  0.61859895  0.12848346    -0.57500
O782        O  0.63986925  0.59238466  0.09306028    -0.56700
O783        O  0.83777708  0.58729933  0.79533788    -0.57900
C784        C  0.83519182  0.53971059  0.83652128     0.74700
O785        O  0.87814874  0.60044581  0.84592288    -0.59000
C786        C  0.84536035  0.60774279  0.79178086     0.74700
C787        C  0.79205452  0.60677937  0.85436940     0.77100
Cd788      Cd  0.83704492  0.58972583  0.83854682     1.37500
O789        O  0.83486809  0.55200105  0.81807644    -0.57900
O790        O  0.79526316  0.58665371  0.84602057    -0.56700
C791        C  0.87939681  0.59187155  0.86630436     0.77100
O792        O  0.80974774  0.61987401  0.85547738    -0.59100
O793        O  0.83674825  0.55054641  0.85572761    -0.57500
O794        O  0.84882584  0.62005568  0.80988813    -0.57500
O795        O  0.86042319  0.58491701  0.87504817    -0.56700
O796        O  0.79740447  0.36175302  0.84806829    -0.57900
C797        C  0.86682086  0.38082025  0.86255611     0.74700
O798        O  0.83444216  0.39260911  0.78871262    -0.59000
C799        C  0.78050135  0.37579035  0.84541419     0.74700
C800        C  0.82876919  0.43901070  0.83340620     0.77100
Cd801      Cd  0.82765444  0.38864938  0.83101463     1.37500
O802        O  0.84593516  0.37823938  0.86910821    -0.57900
O803        O  0.83129945  0.42641248  0.85142135    -0.56700
C804        C  0.83841265  0.37138113  0.78408802     0.77100
O805        O  0.82518643  0.42836041  0.81436600    -0.59100
O806        O  0.86982611  0.38487794  0.84098637    -0.57500
O807        O  0.78524042  0.39478195  0.83520529    -0.57500
O808        O  0.83664739  0.35727183  0.80115607    -0.56700
O809        O  0.13009908  0.81765181  0.61438967    -0.57900
C810        C  0.13766411  0.89062298  0.61121719     0.74700
O811        O  0.20285798  0.84431266  0.59530823    -0.59000
C812        C  0.14371694  0.80094302  0.61951132     0.74700
C813        C  0.15900866  0.83832160  0.55386564     0.77100
Cd814      Cd  0.16117156  0.84570947  0.60336482     1.37500
O815        O  0.14026401  0.87642883  0.62809600    -0.57900
O816        O  0.14476770  0.82863913  0.56769323    -0.56700
C817        C  0.20958375  0.84976217  0.61560252     0.77100
O818        O  0.17408276  0.85147679  0.56304964    -0.59100
O819        O  0.14521635  0.88371498  0.59165930    -0.57500
O820        O  0.16520587  0.80560332  0.61920088    -0.57500
O821        O  0.19384819  0.85288117  0.63091485    -0.56700
O822        O  0.12267547  0.81476443  0.38137628    -0.57900
C823        C  0.12354253  0.88239649  0.40477393     0.74700
O824        O  0.16809037  0.84774179  0.44200266    -0.59000
C825        C  0.13446542  0.79604486  0.38297032     0.74700
C826        C  0.19582492  0.84772402  0.38281488     0.77100
Cd827      Cd  0.15107160  0.83928513  0.40353158     1.37500
O828        O  0.14115901  0.88026014  0.39160402    -0.57900
O829        O  0.17744034  0.84981874  0.37071680    -0.56700
C830        C  0.15580344  0.83322373  0.45319893     0.77100
O831        O  0.19337532  0.84093512  0.40375729    -0.59100
O832        O  0.11732438  0.86406622  0.41544229    -0.57500
O833        O  0.15397561  0.79760846  0.39296602    -0.57500
O834        O  0.14220625  0.82066533  0.44125073    -0.56700
O835        O  0.89056727  0.62780499  0.63564051    -0.57900
C836        C  0.87096675  0.64520538  0.70132238     0.74700
O837        O  0.92593196  0.68431588  0.67277892    -0.59000
C838        C  0.88807905  0.63771620  0.61601550     0.74700
C839        C  0.87363772  0.71201687  0.65161377     0.77100
Cd840      Cd  0.89033265  0.66478199  0.65904375     1.37500
O841        O  0.85840178  0.64772106  0.68325696    -0.57900
O842        O  0.86154097  0.69713151  0.66265698    -0.56700
C843        C  0.93931692  0.66775608  0.66677335     0.77100
O844        O  0.89309504  0.70493870  0.64399046    -0.59100
O845        O  0.89187593  0.65176021  0.69977209    -0.57500
O846        O  0.88377128  0.65940526  0.61655228    -0.57500
O847        O  0.92992677  0.64988297  0.65796309    -0.56700
O848        O  0.08690804  0.70519470  0.64039461    -0.57900
C849        C  0.03890031  0.66611591  0.66279497     0.74700
O850        O  0.09890583  0.62918385  0.62695780    -0.59000
C851        C  0.10867097  0.70784330  0.63869383     0.74700
C852        C  0.10651921  0.64813929  0.69605053     0.77100
Cd853      Cd  0.08762808  0.66391754  0.65162050     1.37500
O854        O  0.05247538  0.68284536  0.66713461    -0.57900
O855        O  0.10037634  0.66904519  0.69245450    -0.56700
C856        C  0.08858325  0.63651543  0.60875072     0.77100
O857        O  0.10509313  0.63451121  0.67865678    -0.59100
O858        O  0.04798276  0.64793420  0.65412110    -0.57500
O859        O  0.12113335  0.68984748  0.64236411    -0.57500
O860        O  0.07957038  0.65667218  0.61013255    -0.56700
O861        O  0.84893699  0.82450367  0.63733682    -0.57900
C862        C  0.86601441  0.88912786  0.60945857     0.74700
O863        O  0.81592226  0.86113024  0.56816008    -0.59000
C864        C  0.84500365  0.80583130  0.62612751     0.74700
C865        C  0.78711098  0.86081132  0.62476387     0.77100
Cd866      Cd  0.83308394  0.85106229  0.60642555     1.37500
O867        O  0.87251148  0.86840283  0.60529570    -0.57900
O868        O  0.80521429  0.86630114  0.63613245    -0.56700
C869        C  0.83040413  0.84979634  0.55588660     0.77100
O870        O  0.79040214  0.85028453  0.60557244    -0.59100
O871        O  0.84482264  0.89195653  0.61473928    -0.57500
O872        O  0.83539444  0.80823214  0.60640875    -0.57500
O873        O  0.84628376  0.83914352  0.56694853    -0.56700
O874        O  0.83158573  0.81617993  0.37573920    -0.57900
C875        C  0.85319105  0.88465544  0.39691896     0.74700
O876        O  0.77808409  0.85181400  0.40806953    -0.59000
C877        C  0.83210029  0.79922490  0.39000108     0.74700
C878        C  0.82348455  0.84658371  0.45508558     0.77100
Cd879      Cd  0.82054457  0.84678864  0.40488613     1.37500
O880        O  0.85793737  0.86380894  0.39119606    -0.57900
O881        O  0.84136515  0.84401572  0.44239032    -0.56700
C882        C  0.77453063  0.85801308  0.38713367     0.77100
O883        O  0.80416511  0.84886234  0.44470802    -0.59100
O884        O  0.83277475  0.88842970  0.40429277    -0.57500
O885        O  0.82636487  0.80403841  0.41080672    -0.57500
O886        O  0.79230992  0.85897237  0.37401636    -0.56700
O887        O  0.86930223  0.65085243  0.39302685    -0.57900
C888        C  0.86426196  0.64614226  0.30764138     0.74700
O889        O  0.88599030  0.70083406  0.36637480    -0.59000
C890        C  0.88102947  0.63223767  0.39539432     0.74700
C891        C  0.93282278  0.66137474  0.34650578     0.77100
Cd892      Cd  0.88302182  0.66016991  0.35278342     1.37500
O893        O  0.85867306  0.63540610  0.32622711    -0.57900
O894        O  0.92122851  0.64273691  0.34481117    -0.56700
C895        C  0.86457094  0.70589899  0.36483425     0.77100
O896        O  0.92138652  0.67996670  0.35015218    -0.59100
O897        O  0.87708733  0.66381910  0.31031709    -0.57500
O898        O  0.89117415  0.62482749  0.37722504    -0.57500
O899        O  0.85130836  0.68962498  0.35787589    -0.56700
O900        O  0.10843966  0.63727762  0.37303407    -0.57900
C901        C  0.09606665  0.64152010  0.29717249     0.74700
O902        O  0.04474224  0.67739871  0.34278407    -0.59000
C903        C  0.09182163  0.63376174  0.38720966     0.74700
C904        C  0.10184710  0.70452231  0.35447238     0.77100
Cd905      Cd  0.08321630  0.65860302  0.34350322     1.37500
O906        O  0.09984724  0.62952916  0.31540808    -0.57900
O907        O  0.11506969  0.68682078  0.35288977    -0.56700
C908        C  0.03319038  0.65863675  0.34165218     0.77100
O909        O  0.08060115  0.70107077  0.35007794    -0.59100
O910        O  0.08724271  0.66151713  0.30035507    -0.57500
O911        O  0.07194807  0.64040503  0.38047831    -0.57500
O912        O  0.04476371  0.63975498  0.34066887    -0.56700
C913        C  0.97032359  0.67429575  0.32809911    -0.01900
C914        C  0.95846769  0.66104296  0.34515169     0.07800
C915        C  0.97115121  0.64696468  0.36094575    -0.02000
C916        C  0.99557738  0.64588140  0.35952468    -0.02000
C917        C  0.00747660  0.65885179  0.34224317     0.07900
C918        C  0.99477813  0.67296488  0.32644799    -0.02200
Br919      Br  0.01075048  0.68946360  0.30170432    -0.00800
Br920      Br  0.95305166  0.69381968  0.30664584    -0.00900
Br921      Br  0.01268860  0.62764678  0.38226874    -0.00800
Br922      Br  0.95514133  0.63038647  0.38569336    -0.00800
C923        C  0.85984785  0.77232902  0.36892528    -0.01900
C924        C  0.83975786  0.77526966  0.38297929     0.07800
C925        C  0.82779388  0.75520804  0.39105085    -0.02000
C926        C  0.83581765  0.73257405  0.38511098    -0.02000
C927        C  0.85572093  0.72969792  0.37079738     0.07900
C928        C  0.86761946  0.74974506  0.36268433    -0.02200
Br929      Br  0.89436462  0.74656623  0.34229941    -0.00800
Br930      Br  0.87801937  0.79912975  0.35944206    -0.00900
Br931      Br  0.82026887  0.70552376  0.39796067    -0.00800
Br932      Br  0.79997005  0.75846404  0.40984807    -0.00800
C933        C  0.83082058  0.82736682  0.51808945    -0.01900
C934        C  0.82875350  0.84896071  0.53001059     0.07800
C935        C  0.82474308  0.86969120  0.51707193    -0.02000
C936        C  0.82283496  0.86877805  0.49252453    -0.02000
C937        C  0.82515719  0.84729532  0.48076522     0.07900
C938        C  0.82919210  0.82661742  0.49349679    -0.02200
Br939      Br  0.83160928  0.79716561  0.47713322    -0.00800
Br940      Br  0.83427591  0.79847114  0.53530721    -0.00900
Br941      Br  0.81758881  0.89706804  0.47475940    -0.00800
Br942      Br  0.82281574  0.89964847  0.53257907    -0.00800
C943        C  0.88092078  0.75533118  0.65043256    -0.01900
C944        C  0.86552140  0.73634127  0.64736568     0.07800
C945        C  0.84277724  0.74063323  0.63903354    -0.02000
C946        C  0.83574384  0.76355046  0.63323016    -0.02000
C947        C  0.85155739  0.78233709  0.63507965     0.07900
C948        C  0.87412467  0.77814761  0.64394700    -0.02200
Br949      Br  0.89655488  0.80320699  0.64558521    -0.00800
Br950      Br  0.91121192  0.75041330  0.66425904    -0.00900
Br951      Br  0.80410094  0.76912110  0.62315590    -0.00800
Br952      Br  0.82156107  0.71501162  0.63385656    -0.00800
C953        C  0.97710653  0.65082349  0.67980079    -0.01900
C954        C  0.96473571  0.66921979  0.66903185     0.07800
C955        C  0.97684473  0.68768039  0.65817097    -0.02000
C956        C  0.00128006  0.68723946  0.65722450    -0.02000
C957        C  0.01362504  0.66803726  0.66666977     0.07900
C958        C  0.00152151  0.65005196  0.67836080    -0.02200
Br959      Br  0.01829540  0.62442971  0.69262163    -0.00800
Br960      Br  0.96054494  0.62685775  0.69684370    -0.00900
Br961      Br  0.01750564  0.71200462  0.64096074    -0.00800
Br962      Br  0.96005697  0.71239548  0.64237616    -0.00800
C963        C  0.13053401  0.73768087  0.35120263    -0.01900
C964        C  0.11040038  0.72797927  0.36155082     0.07800
C965        C  0.09818392  0.74092062  0.37877287    -0.02000
C966        C  0.10564923  0.76349292  0.38509442    -0.02000
C967        C  0.12566336  0.77318782  0.37467685     0.07900
C968        C  0.13821884  0.76011379  0.35791155    -0.02200
Br969      Br  0.16567995  0.77321786  0.34365749    -0.00800
Br970      Br  0.14721328  0.72076774  0.32716579    -0.00900
Br971      Br  0.08929484  0.78056037  0.40928725    -0.00800
Br972      Br  0.07224490  0.72714864  0.39529770    -0.00800
C973        C  0.14392590  0.76382596  0.64348153    -0.01900
C974        C  0.13507598  0.77695285  0.62445784     0.07800
C975        C  0.11864924  0.76657757  0.60927598    -0.02000
C976        C  0.11042731  0.74380241  0.61367180    -0.02000
C977        C  0.11871943  0.73102360  0.63310395     0.07900
C978        C  0.13561477  0.74104391  0.64789348    -0.02200
Br979      Br  0.14630086  0.72418656  0.67519249    -0.00800
Br980      Br  0.16688458  0.77715438  0.66415239    -0.00900
Br981      Br  0.08851642  0.72968324  0.59230900    -0.00800
Br982      Br  0.10860326  0.78266071  0.58124704    -0.00800
C983        C  0.17881634  0.83167599  0.51535146    -0.01900
C984        C  0.15803180  0.83477366  0.52827575     0.07800
C985        C  0.13642658  0.83529151  0.51651781    -0.02000
C986        C  0.13568412  0.83333566  0.49199347    -0.02000
C987        C  0.15657108  0.83187109  0.47898875     0.07900
C988        C  0.17811876  0.83073448  0.49074827    -0.02200
Br989      Br  0.20673455  0.82713443  0.47325401    -0.00800
Br990      Br  0.20826570  0.82755968  0.53123824    -0.00900
Br991      Br  0.10585882  0.83414668  0.47634031    -0.00800
Br992      Br  0.10774894  0.84064038  0.53353007    -0.00800
C993        C  0.86177178  0.60247397  0.75108136    -0.01900
C994        C  0.85017653  0.61670504  0.76777384     0.07800
C995        C  0.84382118  0.63983320  0.76156526    -0.02000
C996        C  0.84993415  0.64891792  0.73944541    -0.02000
C997        C  0.86211050  0.63493230  0.72326903     0.07900
C998        C  0.86777428  0.61166795  0.72897412    -0.02200
Br999      Br  0.88435937  0.59265181  0.70645697    -0.00800
Br1000     Br  0.87090786  0.57079591  0.75858422    -0.00900
Br1001     Br  0.84253264  0.68090862  0.73152054    -0.00800
Br1002     Br  0.82593097  0.65902376  0.78284927    -0.00800
C1003       C  0.81323235  0.47875691  0.82327470    -0.01900
C1004       C  0.83021345  0.46479894  0.83448601     0.07800
C1005       C  0.84882559  0.47559038  0.84643749    -0.02000
C1006       C  0.85024119  0.50012685  0.84744425    -0.02000
C1007       C  0.83356293  0.51400711  0.83576233     0.07900
C1008       C  0.81507660  0.50328356  0.82366277    -0.02200
Br1009     Br  0.79145469  0.52219010  0.80864975    -0.00800
Br1010     Br  0.78662324  0.46448307  0.80845020    -0.00900
Br1011     Br  0.87573814  0.51464218  0.86399491    -0.00800
Br1012     Br  0.87352367  0.45698830  0.85997537    -0.00800
C1013       C  0.73487288  0.60684260  0.88741348    -0.01900
C1014       C  0.72184817  0.62350681  0.87463146     0.07800
C1015       C  0.73253570  0.63573238  0.85602271    -0.02000
C1016       C  0.75599342  0.63118896  0.85014482    -0.02000
C1017       C  0.76868324  0.61402569  0.86245920     0.07900
C1018       C  0.75809643  0.60193024  0.88114104    -0.02200
Br1019     Br  0.77556099  0.57856927  0.89822232    -0.00800
Br1020     Br  0.72061933  0.58970235  0.91281463    -0.00900
Br1021     Br  0.77050037  0.64771728  0.82455920    -0.00800
Br1022     Br  0.71527391  0.65904872  0.83883698    -0.00800
C1023       C  0.62744490  0.63584630  0.98403528    -0.01900
C1024       C  0.64796131  0.64136183  0.97168313     0.07800
C1025       C  0.66820877  0.64770829  0.98398034    -0.02000
C1026       C  0.66820916  0.64779357  0.00861625    -0.02000
C1027       C  0.64786206  0.64167471  0.02108757     0.07900
C1028       C  0.62731109  0.63617143  0.00868392    -0.02200
Br1029     Br  0.59920449  0.62758972  0.02518608    -0.00800
Br1030     Br  0.59995591  0.62613402  0.96721621    -0.00900
Br1031     Br  0.69592777  0.65727720  0.02513491    -0.00800
Br1032     Br  0.69575618  0.65711200  0.96699216    -0.00800
C1033       C  0.72276077  0.34500554  0.85789380    -0.01900
C1034       C  0.71037760  0.36262968  0.86999766     0.07800
C1035       C  0.72113075  0.38435027  0.87417719    -0.02000
C1036       C  0.74414237  0.38836655  0.86657918    -0.02000
C1037       C  0.75654173  0.37086024  0.85418191     0.07900
C1038       C  0.74577799  0.34903699  0.85012537    -0.02200
Br1039     Br  0.76232457  0.32454239  0.83379503    -0.00800
Br1040     Br  0.70861565  0.31481151  0.85297811    -0.00900
Br1041     Br  0.75919887  0.41732053  0.87508437    -0.00800
Br1042     Br  0.70403009  0.40900191  0.88979102    -0.00800
C1043       C  0.66157375  0.32345150  0.98918445    -0.01900
C1044       C  0.64529312  0.33831902  0.97814792     0.07800
C1045       C  0.62957095  0.35157910  0.99174381    -0.02000
C1046       C  0.63012835  0.35002340  0.01629063    -0.02000
C1047       C  0.64648734  0.33526073  0.02735079     0.07900
C1048       C  0.66216423  0.32193415  0.01377380    -0.02200
Br1049     Br  0.68381213  0.30087916  0.02884940    -0.00800
Br1050     Br  0.68246848  0.30444765  0.97065214    -0.00900
Br1051     Br  0.60934920  0.36932987  0.03466990    -0.00800
Br1052     Br  0.60829583  0.37319943  0.97687744    -0.00800
C1053       C  0.74755715  0.38341861  0.14066783    -0.01900
C1054       C  0.76498159  0.36601082  0.14361221     0.07800
C1055       C  0.75912731  0.34232836  0.13958057    -0.02000
C1056       C  0.73635375  0.33622504  0.13257321    -0.02000
C1057       C  0.71905515  0.35360346  0.12987667     0.07900
C1058       C  0.72474247  0.37719220  0.13401005    -0.02200
Br1059     Br  0.70153409  0.40126718  0.12909108    -0.00800
Br1060     Br  0.75493803  0.41619271  0.14412496    -0.00900
Br1061     Br  0.72855018  0.30379474  0.12756030    -0.00800
Br1062     Br  0.78176175  0.31784510  0.14483715    -0.00800
C1063       C  0.75734060  0.60979427  0.12274421    -0.01900
C1064       C  0.76162105  0.61216896  0.14692705     0.07800
C1065       C  0.74333104  0.61887030  0.16203879    -0.02000
C1066       C  0.72091993  0.62346949  0.15297371    -0.02000
C1067       C  0.71650819  0.62070541  0.12876870     0.07900
C1068       C  0.73484651  0.61363057  0.11375732    -0.02200
Br1069     Br  0.72907005  0.60730777  0.08099763    -0.00800
Br1070     Br  0.78203027  0.59984192  0.10190910    -0.00900
Br1071     Br  0.69676979  0.63471478  0.17371596    -0.00800
Br1072     Br  0.74924186  0.62261467  0.19509619    -0.00800
C1073       C  0.86692619  0.63075429  0.24275276    -0.01900
C1074       C  0.84435384  0.62204538  0.23874286     0.07800
C1075       C  0.82805305  0.62168087  0.25724979    -0.02000
C1076       C  0.83424353  0.63004451  0.27963909    -0.02000
C1077       C  0.85707912  0.63816310  0.28390199     0.07900
C1078       C  0.87343462  0.63828612  0.26529184    -0.02200
Br1079     Br  0.90557227  0.64667957  0.27078537    -0.00800
Br1080     Br  0.88960065  0.63098068  0.21767453    -0.00900
Br1081     Br  0.81095856  0.63120137  0.30402945    -0.00800
Br1082     Br  0.79689618  0.61038482  0.25169363    -0.00800
C1083       C  0.81142004  0.50068301  0.17917050    -0.01900
C1084       C  0.83033535  0.51368437  0.17038863     0.07800
C1085       C  0.85004719  0.50203336  0.16131541    -0.02000
C1086       C  0.85078945  0.47745648  0.16087108    -0.02000
C1087       C  0.83190109  0.46444027  0.16969170     0.07900
C1088       C  0.81234352  0.47607020  0.17912604    -0.02200
Br1089     Br  0.78659717  0.45829427  0.19151353    -0.00800
Br1090     Br  0.78451740  0.51658300  0.19184178    -0.00900
Br1091     Br  0.87819358  0.46162251  0.14911775    -0.00800
Br1092     Br  0.87575187  0.51974962  0.14868712    -0.00800
C1093       C  0.26861654  0.84522547  0.64518821    -0.01900
C1094       C  0.28134107  0.86209754  0.63256403     0.07800
C1095       C  0.27108721  0.87334521  0.61315415    -0.02000
C1096       C  0.24780692  0.86873578  0.60716831    -0.02000
C1097       C  0.23456145  0.85299782  0.62076846     0.07900
C1098       C  0.24524391  0.84066825  0.63928368    -0.02200
Br1099     Br  0.22806789  0.81703439  0.65607102    -0.00800
Br1100     Br  0.28274819  0.82938258  0.67141964    -0.00900
Br1101     Br  0.23382268  0.88509291  0.58106123    -0.00800
Br1102     Br  0.28904796  0.89515756  0.59471714    -0.00800
C1103       C  0.35857184  0.97792737  0.64917458    -0.01900
C1104       C  0.34585295  0.96426168  0.66520552     0.07800
C1105       C  0.33202181  0.97503157  0.68248498    -0.02000
C1106       C  0.33065626  0.99954537  0.68358978    -0.02000
C1107       C  0.34349670  0.01327811  0.66766045     0.07900
C1108       C  0.35753139  0.00245153  0.65048278    -0.02200
Br1109     Br  0.37606477  0.02112361  0.62931960    -0.00800
Br1110     Br  0.37781202  0.96299072  0.62575273    -0.00900
Br1111     Br  0.30994446  0.01422613  0.70588438    -0.00800
Br1112     Br  0.31417738  0.95611568  0.70396192    -0.00800
C1113       C  0.36344584  0.86900320  0.77167261    -0.01900
C1114       C  0.36258672  0.84481603  0.77661417     0.07800
C1115       C  0.35714818  0.82905404  0.75840014    -0.02000
C1116       C  0.35295541  0.83729463  0.73546102    -0.02000
C1117       C  0.35459046  0.86141815  0.73029457     0.07900
C1118       C  0.35971244  0.87725000  0.74863585    -0.02200
Br1119     Br  0.36364754  0.91019815  0.74213298    -0.00800
Br1120     Br  0.37148813  0.89088395  0.79608942    -0.00900
Br1121     Br  0.34400457  0.81537712  0.71140704    -0.00800
Br1122     Br  0.35473978  0.79601347  0.76497334    -0.00800
C1123       C  0.59576258  0.73064895  0.86172187    -0.01900
C1124       C  0.61213567  0.74786263  0.85500004     0.07800
C1125       C  0.63582364  0.74154692  0.85262077    -0.02000
C1126       C  0.64321311  0.71865369  0.85807512    -0.02000
C1127       C  0.62694397  0.70167076  0.86524451     0.07900
C1128       C  0.60310238  0.70753866  0.86631555    -0.02200
Br1129     Br  0.58058191  0.68436123  0.87585365    -0.00800
Br1130     Br  0.56355119  0.73898099  0.86718403    -0.00900
Br1131     Br  0.67572840  0.71042574  0.85542443    -0.00800
Br1132     Br  0.65825483  0.76397855  0.84131953    -0.00800
C1133       C  0.49956063  0.79940889  0.83569002    -0.01900
C1134       C  0.51126368  0.81808842  0.84681358     0.07800
C1135       C  0.49813241  0.83576476  0.85812488    -0.02000
C1136       C  0.47367324  0.83461094  0.85848169    -0.02000
C1137       C  0.46206665  0.81652410  0.84653405     0.07900
C1138       C  0.47504417  0.79875243  0.83540484    -0.02200
Br1139     Br  0.45930724  0.77400221  0.81878728    -0.00800
Br1140     Br  0.51683157  0.77531875  0.81939454    -0.00900
Br1141     Br  0.45608617  0.85689315  0.87696873    -0.00800
Br1142     Br  0.51325531  0.86144081  0.87386762    -0.00800
C1143       C  0.73338847  0.86640909  0.66373617    -0.01900
C1144       C  0.71683509  0.87518030  0.64769023     0.07800
C1145       C  0.72386805  0.88072958  0.62468499    -0.02000
C1146       C  0.74696153  0.87654095  0.61742171    -0.02000
C1147       C  0.76325344  0.86655737  0.63307990     0.07900
C1148       C  0.75646689  0.86189802  0.65641396    -0.02200
Br1149     Br  0.77834872  0.84825481  0.67818658    -0.00800
Br1150     Br  0.72434212  0.85994614  0.69564918    -0.00900
Br1151     Br  0.75653298  0.88610199  0.58638381    -0.00800
Br1152     Br  0.70224453  0.89575685  0.60354404    -0.00800
C1153       C  0.64001039  0.86811258  0.75531322    -0.01900
C1154       C  0.62895851  0.85975088  0.73489949     0.07800
C1155       C  0.61162952  0.84241710  0.73700013    -0.02000
C1156       C  0.60500570  0.83406459  0.75930856    -0.02000
C1157       C  0.61494760  0.84360617  0.77986564     0.07900
C1158       C  0.63278235  0.86044052  0.77766922    -0.02200
Br1159     Br  0.64660177  0.87424637  0.80515171    -0.00800
Br1160     Br  0.66587876  0.88947994  0.75267271    -0.00900
Br1161     Br  0.58299669  0.80863442  0.76139746    -0.00800
Br1162     Br  0.59580393  0.83094688  0.70949699    -0.00800
C1163       C  0.62471463  0.97903669  0.65085926    -0.01900
C1164       C  0.64014907  0.96827825  0.66684733     0.07800
C1165       C  0.65314743  0.98219531  0.68243817    -0.02000
C1166       C  0.65080457  0.00671512  0.68197915    -0.02000
C1167       C  0.63542053  0.01743987  0.66595185     0.07900
C1168       C  0.62225216  0.00352062  0.65054115    -0.02200
Br1169     Br  0.59970187  0.01782259  0.62990184    -0.00800
Br1170     Br  0.60604102  0.96033289  0.62993200    -0.00900
Br1171     Br  0.66971458  0.02560991  0.70249527    -0.00800
Br1172     Br  0.67534449  0.96786437  0.70344015    -0.00800
C1173       C  0.34930839  0.13567995  0.74958544    -0.01900
C1174       C  0.34703237  0.11181487  0.74361120     0.07800
C1175       C  0.35005703  0.09458210  0.76121431    -0.02000
C1176       C  0.35670635  0.10112509  0.78405298    -0.02000
C1177       C  0.36049342  0.12487597  0.78950796     0.07900
C1178       C  0.35604661  0.14215171  0.77238133    -0.02200
Br1179     Br  0.35825652  0.17493272  0.78032861    -0.00800
Br1180     Br  0.34232601  0.15982276  0.72690561    -0.00900
Br1181     Br  0.36224480  0.07717917  0.80732381    -0.00800
Br1182     Br  0.34692334  0.06167613  0.75407804    -0.00800
C1183       C  0.60446853  0.11204128  0.77409209    -0.01900
C1184       C  0.60873100  0.13543826  0.78062542     0.07800
C1185       C  0.61746890  0.15124144  0.76376757    -0.02000
C1186       C  0.62169648  0.14380744  0.74055764    -0.02000
C1187       C  0.61757467  0.12036886  0.73404913     0.07900
C1188       C  0.60903125  0.10450131  0.75100088    -0.02200
Br1189     Br  0.60220310  0.07258152  0.74236769    -0.00800
Br1190     Br  0.59085365  0.09056266  0.79633139    -0.00900
Br1191     Br  0.63421179  0.16559366  0.71802349    -0.00800
Br1192     Br  0.62485191  0.18287744  0.77275949    -0.00800
C1193       C  0.62478776  0.25685367  0.89765219    -0.01900
C1194       C  0.63034491  0.27344575  0.88015423     0.07800
C1195       C  0.63093788  0.26646248  0.85645746    -0.02000
C1196       C  0.62529005  0.24330482  0.85025404    -0.02000
C1197       C  0.61918230  0.22690699  0.86767478     0.07900
C1198       C  0.61938274  0.23365867  0.89143721    -0.02200
Br1199     Br  0.61059346  0.21162035  0.91553898    -0.00800
Br1200     Br  0.62267212  0.26616124  0.93014725    -0.00900
Br1201     Br  0.62671138  0.23381793  0.81786905    -0.00800
Br1202     Br  0.64036976  0.28830464  0.83246846    -0.00800
C1203       C  0.50004415  0.15719649  0.83037538    -0.01900
C1204       C  0.51288253  0.15830701  0.85136962     0.07800
C1205       C  0.50114674  0.15849570  0.87309640    -0.02000
C1206       C  0.47668232  0.15745803  0.87380935    -0.02000
C1207       C  0.46388710  0.15583496  0.85280759     0.07900
C1208       C  0.47558890  0.15595859  0.83110426    -0.02200
Br1209     Br  0.45800826  0.15548332  0.80231763    -0.00800
Br1210     Br  0.51586837  0.15816759  0.80054525    -0.00900
Br1211     Br  0.46086755  0.15689736  0.90368904    -0.00800
Br1212     Br  0.51859755  0.15833760  0.90200578    -0.00800
C1213       C  0.88090451  0.36167242  0.26836548    -0.01900
C1214       C  0.86671466  0.34602048  0.28102804     0.07800
C1215       C  0.84553452  0.33840970  0.27109304    -0.02000
C1216       C  0.83894273  0.34598115  0.24844099    -0.02000
C1217       C  0.85350336  0.36117865  0.23553455     0.07900
C1218       C  0.87449147  0.36896826  0.24571439    -0.02200
Br1219     Br  0.89537440  0.38881457  0.22827703    -0.00800
Br1220     Br  0.90873914  0.37426646  0.28251540    -0.00900
Br1221     Br  0.80950318  0.33621398  0.23557184    -0.00800
Br1222     Br  0.82587461  0.31695665  0.28810505    -0.00800
C1223       C  0.00730448  0.31207804  0.33622108    -0.16300
C1224       C  0.01745611  0.32643863  0.35344082     0.07800
C1225       C  0.00314872  0.33976113  0.36848161    -0.02000
C1226       C  0.97877398  0.33860702  0.36644640    -0.02000
C1227       C  0.96856149  0.32411350  0.34933953     0.07900
C1228       C  0.98288381  0.31083670  0.33424141    -0.02200
Br1229     Br  0.96908403  0.29159835  0.31027996    -0.00800
Br1230     Br  0.02683791  0.29350695  0.31586221    -0.00900
Br1231     Br  0.95942192  0.35621154  0.38787233    -0.00800
Br1232     Br  0.01696213  0.36043746  0.39129923    -0.00800
C1233       C  0.83799488  0.21866333  0.36365030    -0.01900
C1234       C  0.85481393  0.20175272  0.37012249     0.07800
C1235       C  0.87860834  0.20784504  0.37000639    -0.02000
C1236       C  0.88537530  0.23097352  0.36486703    -0.02000
C1237       C  0.86845958  0.24813533  0.35937475     0.07900
C1238       C  0.84479757  0.24172316  0.35822340    -0.02200
Br1239     Br  0.82171436  0.26430052  0.34840652    -0.00800
Br1240     Br  0.80557504  0.21010236  0.36146512    -0.00900
Br1241     Br  0.91781541  0.23946280  0.36736839    -0.00800
Br1242     Br  0.90202684  0.18506268  0.37856815    -0.00800
C1243       C  0.72077795  0.10753440  0.65471961    -0.01900
C1244       C  0.70130735  0.11699459  0.64281454     0.07800
C1245       C  0.70497760  0.13261755  0.62400729    -0.02000
C1246       C  0.72780956  0.13861227  0.61715475    -0.02000
C1247       C  0.74724758  0.12845620  0.62852067     0.07900
C1248       C  0.74359355  0.11291439  0.64735798    -0.02200
Br1249     Br  0.76974115  0.09753961  0.66214111    -0.00800
Br1250     Br  0.71642885  0.08767630  0.68175978    -0.00900
Br1251     Br  0.73227191  0.16139601  0.59252370    -0.00800
Br1252     Br  0.67887087  0.14465957  0.60638725    -0.00800
C1253       C  0.84338476  0.15171785  0.51421602    -0.01900
C1254       C  0.82197784  0.14680660  0.52532344     0.07800
C1255       C  0.80216338  0.14165541  0.51166886    -0.02000
C1256       C  0.80385960  0.14116970  0.48710721    -0.02000
C1257       C  0.82556218  0.14479054  0.47607576     0.07900
C1258       C  0.84528682  0.15029679  0.48970886    -0.02200
Br1259     Br  0.87542237  0.15456123  0.47521699    -0.00800
Br1260     Br  0.87009700  0.16125238  0.53238829    -0.00900
Br1261     Br  0.77607283  0.13649372  0.46864633    -0.00800
Br1262     Br  0.77289160  0.13361426  0.52635864    -0.00800
C1263       C  0.84039816  0.33916525  0.72535994    -0.01900
C1264       C  0.85765129  0.35200263  0.71322808     0.07800
C1265       C  0.86858140  0.37090942  0.72462982    -0.02000
C1266       C  0.86280092  0.37657341  0.74795353    -0.02000
C1267       C  0.84531418  0.36401887  0.76000092     0.07900
C1268       C  0.83410112  0.34529608  0.74854578    -0.02200
Br1269     Br  0.80944057  0.32856201  0.76420864    -0.00800
Br1270     Br  0.82604854  0.31244519  0.71073273    -0.00900
Br1271     Br  0.88006063  0.40083964  0.76377052    -0.00800
Br1272     Br  0.89075298  0.39007611  0.70793303    -0.00800
C1273       C  0.84452148  0.25523189  0.60621621    -0.01900
C1274       C  0.85292846  0.26120259  0.62861845     0.07800
C1275       C  0.85421075  0.24382281  0.64617536    -0.02000
C1276       C  0.84825024  0.22046587  0.64111875    -0.02000
C1277       C  0.84011833  0.21435096  0.61861072     0.07900
C1278       C  0.83831240  0.23191595  0.60117173    -0.02200
Br1279     Br  0.82909787  0.22396475  0.56961117    -0.00800
Br1280     Br  0.84236677  0.27872420  0.58195641    -0.00900
Br1281     Br  0.85064385  0.19717555  0.66553240    -0.00800
Br1282     Br  0.86247384  0.25233424  0.67783728    -0.00800
C1283       C  0.97048799  0.30838337  0.63655330    -0.01900
C1284       C  0.95735751  0.32259100  0.65194086     0.07800
C1285       C  0.96871627  0.33487081  0.66995899    -0.02000
C1286       C  0.99304807  0.33347024  0.67224512    -0.02000
C1287       C  0.00641189  0.32003328  0.65637904     0.07900
C1288       C  0.99493078  0.30706725  0.63876518    -0.02200
Br1289     Br  0.01246215  0.28832607  0.61674710    -0.00800
Br1290     Br  0.95525264  0.29186491  0.61138282    -0.00900
Br1291     Br  0.00767224  0.34893082  0.69826439    -0.00800
Br1292     Br  0.95088057  0.35292095  0.69236776    -0.00800
C1293       C  0.24663346  0.12676537  0.61482271    -0.01900
C1294       C  0.22755419  0.12779697  0.63050519     0.07800
C1295       C  0.23098628  0.12249602  0.65441005    -0.02000
C1296       C  0.25328600  0.11628169  0.66254826    -0.02000
C1297       C  0.27225016  0.11520209  0.64686506     0.07900
C1298       C  0.26889750  0.12047201  0.62300948    -0.02200
Br1299     Br  0.29446960  0.11739253  0.60117287    -0.00800
Br1300     Br  0.24220718  0.13217210  0.58169580    -0.00900
Br1301     Br  0.25803479  0.11003440  0.69546144    -0.00800
Br1302     Br  0.20543739  0.12450428  0.67637034    -0.00800
C1303       C  0.14208459  0.22241661  0.64814153    -0.01900
C1304       C  0.13144916  0.20998642  0.62971655     0.07800
C1305       C  0.11160845  0.21941103  0.61859117    -0.02000
C1306       C  0.10268342  0.24126739  0.62553563    -0.02000
C1307       C  0.11352800  0.25396431  0.64365820     0.07900
C1308       C  0.13314693  0.24438930  0.65507928    -0.02200
Br1309     Br  0.14730337  0.26099214  0.68072473    -0.00800
Br1310     Br  0.16958407  0.20994832  0.66307664    -0.00900
Br1311     Br  0.07612220  0.25424814  0.60926913    -0.00800
Br1312     Br  0.09610796  0.20207735  0.59411730    -0.00800
C1313       C  0.14611271  0.23065843  0.36106695    -0.01900
C1314       C  0.13687558  0.21678068  0.37926134     0.07800
C1315       C  0.11917460  0.22606741  0.39374935    -0.02000
C1316       C  0.11137866  0.24925555  0.39063361    -0.02000
C1317       C  0.12063287  0.26321437  0.37249565     0.07900
C1318       C  0.13782421  0.25368799  0.35750375    -0.02200
Br1319     Br  0.14909894  0.27160475  0.33121705    -0.00800
Br1320     Br  0.16929490  0.21764751  0.34027307    -0.00900
Br1321     Br  0.08899506  0.26232805  0.41232428    -0.00800
Br1322     Br  0.10612196  0.20742112  0.41868167    -0.00800
C1323       C  0.17761713  0.13605927  0.48903027    -0.01900
C1324       C  0.16547197  0.15390099  0.47703897     0.07800
C1325       C  0.15304250  0.17098544  0.48979349    -0.02000
C1326       C  0.15277588  0.17023908  0.51441864    -0.02000
C1327       C  0.16472333  0.15225732  0.52635708     0.07900
C1328       C  0.17734555  0.13530706  0.51362536    -0.02200
Br1329     Br  0.19308994  0.11005669  0.52970034    -0.00800
Br1330     Br  0.19308114  0.11137112  0.47182997    -0.00900
Br1331     Br  0.13695141  0.19454015  0.53181786    -0.00800
Br1332     Br  0.13693192  0.19586612  0.47370676    -0.00800
C1333       C  0.26242516  0.12207754  0.34336679    -0.01900
C1334       C  0.27910171  0.11400123  0.35966179     0.07800
C1335       C  0.27304787  0.11243924  0.38354467    -0.02000
C1336       C  0.25046594  0.11872186  0.39107067    -0.02000
C1337       C  0.23385247  0.12735529  0.37486842     0.07900
C1338       C  0.23994501  0.12873893  0.35089368    -0.02200
Br1339     Br  0.21797569  0.14051550  0.32812641    -0.00800
Br1340     Br  0.27071505  0.12521999  0.31068820    -0.00900
Br1341     Br  0.24195871  0.11338008  0.42339188    -0.00800
Br1342     Br  0.29529443  0.10039217  0.40591488    -0.00800
C1343       C  0.23238445  0.87073254  0.38564222    -0.01900
C1344       C  0.21903248  0.85393406  0.37361828     0.07800
C1345       C  0.22812846  0.84316010  0.35332253    -0.02000
C1346       C  0.25070671  0.84878438  0.34545020    -0.02000
C1347       C  0.26394422  0.86557603  0.35751147     0.07900
C1348       C  0.25466481  0.87669413  0.37746230    -0.02200
Br1349     Br  0.27266033  0.90000643  0.39381045    -0.00800
Br1350     Br  0.21974981  0.88654830  0.41277289    -0.00900
Br1351     Br  0.26326306  0.83417487  0.31770715    -0.00800
Br1352     Br  0.21000372  0.82038598  0.33656653    -0.00800
C1353       C  0.32790768  0.97802313  0.31450834    -0.01900
C1354       C  0.33733787  0.96474587  0.33298800     0.07800
C1355       C  0.34844845  0.97592674  0.35186959    -0.02000
C1356       C  0.34991719  0.00043922  0.35241461    -0.02000
C1357       C  0.33998347  0.01382664  0.33420460     0.07900
C1358       C  0.32893710  0.00256030  0.31525084    -0.02200
Br1359     Br  0.31394788  0.02060586  0.29090308    -0.00800
Br1360     Br  0.31280234  0.96261701  0.28857625    -0.00900
Br1361     Br  0.36682968  0.01545093  0.37743658    -0.00800
Br1362     Br  0.36285104  0.95759441  0.37636847    -0.00800
C1363       C  0.35659414  0.87384734  0.22228014    -0.01900
C1364       C  0.35221893  0.85041936  0.21602503     0.07800
C1365       C  0.34109573  0.83543363  0.23208165    -0.02000
C1366       C  0.33528858  0.84344531  0.25465110    -0.02000
C1367       C  0.34084465  0.86647256  0.26146290     0.07900
C1368       C  0.35098981  0.88187223  0.24496139    -0.02200
Br1369     Br  0.35913585  0.91341600  0.25378463    -0.00800
Br1370     Br  0.37207791  0.89443313  0.20043385    -0.00900
Br1371     Br  0.31908380  0.82291739  0.27597253    -0.00800
Br1372     Br  0.33357314  0.80387269  0.22301499    -0.00800
C1373       C  0.62118343  0.71895977  0.10930110    -0.01900
C1374       C  0.62800855  0.70178626  0.12575563     0.07800
C1375       C  0.62785974  0.70724062  0.14988784    -0.02000
C1376       C  0.62025349  0.72948457  0.15748698    -0.02000
C1377       C  0.61313949  0.74638906  0.14099441     0.07900
C1378       C  0.61396403  0.74118537  0.11692343    -0.02200
Br1379     Br  0.60416056  0.76428739  0.09427630    -0.00800
Br1380     Br  0.62027630  0.71187698  0.07619214    -0.00900
Br1381     Br  0.62043901  0.73724658  0.19034925    -0.00800
Br1382     Br  0.63931805  0.68485268  0.17243468    -0.00800
C1383       C  0.49657328  0.83821434  0.15921805    -0.01900
C1384       C  0.50782350  0.81660171  0.16360727     0.07800
C1385       C  0.49430489  0.79638975  0.16761203    -0.02000
C1386       C  0.46983793  0.79756922  0.16621229    -0.02000
C1387       C  0.45869637  0.81907934  0.16141871     0.07900
C1388       C  0.47211853  0.83943719  0.15824883    -0.02200
Br1389     Br  0.45715282  0.86883657  0.15067188    -0.00800
Br1390     Br  0.51440359  0.86611784  0.15275174    -0.00900
Br1391     Br  0.45158845  0.76973410  0.17153578    -0.00800
Br1392     Br  0.50909424  0.76724343  0.17625957    -0.00800
C1393       C  0.73329429  0.12874007  0.34433485    -0.01900
C1394       C  0.71867914  0.11304531  0.35631214     0.07800
C1395       C  0.72693918  0.10115236  0.37628086    -0.02000
C1396       C  0.74978727  0.10486610  0.38422860    -0.02000
C1397       C  0.76444789  0.12074790  0.37238277     0.07900
C1398       C  0.75613260  0.13265523  0.35237177    -0.02200
Br1399     Br  0.77555609  0.15505991  0.33641877    -0.00800
Br1400     Br  0.72221923  0.14421432  0.31643691    -0.00900
Br1401     Br  0.76126134  0.08718988  0.41070153    -0.00800
Br1402     Br  0.70662860  0.08024309  0.39323192    -0.00800
C1403       C  0.70946656  0.85361989  0.37533026    -0.01900
C1404       C  0.70508653  0.87465146  0.36311820     0.07800
C1405       C  0.72366046  0.89036441  0.35901228    -0.02000
C1406       C  0.74639440  0.88483636  0.36658924    -0.02000
C1407       C  0.75076052  0.86370186  0.37861830     0.07900
C1408       C  0.73216007  0.84821748  0.38309685    -0.02200
Br1409     Br  0.73789038  0.81882591  0.39883225    -0.00800
Br1410     Br  0.68472373  0.83141285  0.38040325    -0.00900
Br1411     Br  0.77127563  0.90697756  0.36160622    -0.00800
Br1412     Br  0.71790615  0.92032811  0.34432849    -0.00800
C1413       C  0.62721593  0.83942105  0.26284097    -0.01900
C1414       C  0.61726236  0.86080840  0.27024818     0.07800
C1415       C  0.60109946  0.87238345  0.25557803    -0.02000
C1416       C  0.59532017  0.86294232  0.23358471    -0.02000
C1417       C  0.60576989  0.84193210  0.22588044     0.07900
C1418       C  0.62139075  0.82995872  0.24079364    -0.02200
Br1419     Br  0.63568383  0.80104529  0.23069124    -0.00800
Br1420     Br  0.65004102  0.82372669  0.28210624    -0.00900
Br1421     Br  0.57173212  0.87810924  0.21474193    -0.00800
Br1422     Br  0.58583717  0.90076456  0.26589950    -0.00800
C1423       C  0.65732041  0.98182230  0.35209992    -0.01900
C1424       C  0.64689063  0.96967752  0.33335050     0.07800
C1425       C  0.63800503  0.98225282  0.31398810    -0.02000
C1426       C  0.63928425  0.00680456  0.31355360    -0.02000
C1427       C  0.64961325  0.01892534  0.33234859     0.07900
C1428       C  0.65864183  0.00636194  0.35160231    -0.02200
Br1429     Br  0.67359963  0.02258360  0.37712098    -0.00800
Br1430     Br  0.67075345  0.96498197  0.37821237    -0.00900
Br1431     Br  0.62503348  0.02379460  0.28799300    -0.00800
Br1432     Br  0.62243884  0.96623744  0.28864723    -0.00800
C1433       C  0.59875615  0.23385268  0.12116398    -0.01900
C1434       C  0.61503861  0.21757507  0.13018770     0.07800
C1435       C  0.63789973  0.22506372  0.13511263    -0.02000
C1436       C  0.64423264  0.24867855  0.13163172    -0.02000
C1437       C  0.62790800  0.26502221  0.12274038     0.07900
C1438       C  0.60518118  0.25736237  0.11732771    -0.02200
Br1439     Br  0.58312912  0.27855706  0.10300105    -0.00800
Br1440     Br  0.56787629  0.22368284  0.11250535    -0.00900
Br1441     Br  0.67509936  0.25875541  0.14028314    -0.00800
Br1442     Br  0.66042419  0.20323122  0.14758244    -0.00800
C1443       C  0.63376370  0.10873037  0.21801212    -0.01900
C1444       C  0.62039509  0.12899137  0.21347035     0.07800
C1445       C  0.61465279  0.14407856  0.23227913    -0.02000
C1446       C  0.62124410  0.13844103  0.25542578    -0.02000
C1447       C  0.63403309  0.11781987  0.26008034     0.07900
C1448       C  0.64067862  0.10326808  0.24113298    -0.02200
Br1449     Br  0.65982545  0.07595103  0.24659954    -0.00800
Br1450     Br  0.64135614  0.08746370  0.19286934    -0.00900
Br1451     Br  0.61115206  0.15832755  0.28085220    -0.00800
Br1452     Br  0.59809742  0.17299742  0.22643014    -0.00800
C1453       C  0.34945847  0.14150199  0.25830983    -0.01900
C1454       C  0.35643209  0.11862705  0.26456973     0.07800
C1455       C  0.36771786  0.10425247  0.24788656    -0.02000
C1456       C  0.37222356  0.11282008  0.22528141    -0.02000
C1457       C  0.36594870  0.13584918  0.21935161     0.07900
C1458       C  0.35459511  0.15022542  0.23580681    -0.02200
Br1459     Br  0.34673932  0.18200835  0.22759272    -0.00800
Br1460     Br  0.33206157  0.16055980  0.28009252    -0.00900
Br1461     Br  0.38787580  0.09332920  0.20248967    -0.00800
Br1462     Br  0.37871486  0.07336322  0.25624704    -0.00800
C1463       C  0.47858603  0.16264123  0.13037065    -0.01900
C1464       C  0.46733773  0.16195326  0.15231372     0.07800
C1465       C  0.48052848  0.16005859  0.17302318    -0.02000
C1466       C  0.50493048  0.15830633  0.17174420    -0.02000
C1467       C  0.51612503  0.15804611  0.14972128     0.07900
C1468       C  0.50293161  0.16066790  0.12906032    -0.02200
Br1469     Br  0.51786329  0.15997414  0.09870681    -0.00800
Br1470     Br  0.46057333  0.16443864  0.10184890    -0.00900
Br1471     Br  0.52302303  0.15741107  0.20023013    -0.00800
Br1472     Br  0.46523136  0.16052223  0.20317594    -0.00800
C1473       C  0.37986395  0.24818022  0.13722232    -0.01900
C1474       C  0.36375259  0.22994560  0.14133985     0.07800
C1475       C  0.33964724  0.23470090  0.14021671    -0.02000
C1476       C  0.33176334  0.25720107  0.13402495    -0.02000
C1477       C  0.34786021  0.27503332  0.12887267     0.07900
C1478       C  0.37188286  0.27071035  0.13120302    -0.02200
Br1479     Br  0.39393795  0.29526624  0.12462991    -0.00800
Br1480     Br  0.41300163  0.24207936  0.13758003    -0.00900
Br1481     Br  0.29878759  0.26390174  0.13316898    -0.00800
Br1482     Br  0.31727478  0.21066200  0.14763876    -0.00800
C1483       C  0.32534555  0.23964355  0.88225567    -0.01900
C1484       C  0.33744964  0.25987625  0.87503649     0.07800
C1485       C  0.35889041  0.25758895  0.86318786    -0.02000
C1486       C  0.36839451  0.23523626  0.85900286    -0.02000
C1487       C  0.35671317  0.21500371  0.86702260     0.07900
C1488       C  0.33507094  0.21732564  0.87857760    -0.02200
Br1489     Br  0.31939968  0.19022872  0.89122383    -0.00800
Br1490     Br  0.29508202  0.24235064  0.89694419    -0.00900
Br1491     Br  0.39733611  0.23261513  0.84184950    -0.00800
Br1492     Br  0.37623071  0.28504918  0.85412456    -0.00800
C1493       C  0.29414259  0.32919989  0.98765076    -0.01900
C1494       C  0.31346739  0.32111963  0.97471068     0.07800
C1495       C  0.33341694  0.31274208  0.98642468    -0.02000
C1496       C  0.33438796  0.31326604  0.01101506    -0.02000
C1497       C  0.31567800  0.32280665  0.02395343     0.07900
C1498       C  0.29527915  0.33023725  0.01221070    -0.02200
Br1499     Br  0.26940564  0.34379806  0.02923327    -0.00800
Br1500     Br  0.26673106  0.34081151  0.97172794    -0.00900
Br1501     Br  0.36104502  0.30003049  0.02690472    -0.00800
Br1502     Br  0.35932725  0.30011836  0.96883197    -0.00800
C1503       C  0.13007962  0.34945792  0.76226433    -0.01900
C1504       C  0.11317349  0.36223341  0.77490130     0.07800
C1505       C  0.09182728  0.36789318  0.76420397    -0.02000
C1506       C  0.08699605  0.36006889  0.74139946    -0.02000
C1507       C  0.10356588  0.34671638  0.72888808     0.07900
C1508       C  0.12543856  0.34201766  0.73916036    -0.02200
Br1509     Br  0.14894982  0.32515605  0.72182827    -0.00800
Br1510     Br  0.15989385  0.34288341  0.77636780    -0.00900
Br1511     Br  0.05811028  0.36911999  0.72683435    -0.00800
Br1512     Br  0.06884353  0.38602637  0.78095418    -0.00800
C1513       C  0.20891860  0.37301623  0.88132244    -0.01900
C1514       C  0.19493183  0.35855671  0.86712824     0.07800
C1515       C  0.20437949  0.33750050  0.85819154    -0.02000
C1516       C  0.22736174  0.33072436  0.86390149    -0.02000
C1517       C  0.24105851  0.34491603  0.87861257     0.07900
C1518       C  0.23169860  0.36606042  0.88734059    -0.02200
Br1519     Br  0.25055082  0.38635486  0.90657210    -0.00800
Br1520     Br  0.19782676  0.40354916  0.89072062    -0.00900
Br1521     Br  0.23966204  0.30141736  0.85244888    -0.00800
Br1522     Br  0.18572116  0.31753185  0.83854975    -0.00800
C1523       C  0.10921397  0.63898225  0.76210690    -0.01900
C1524       C  0.12765329  0.62267401  0.76409815     0.07800
C1525       C  0.14029949  0.61624110  0.74382442    -0.02000
C1526       C  0.13387191  0.62510787  0.72169261    -0.02000
C1527       C  0.11438575  0.64005936  0.71949918     0.07900
C1528       C  0.10216216  0.64706070  0.73987617    -0.02200
Br1529     Br  0.07425042  0.66595416  0.73748515    -0.00800
Br1530     Br  0.09268411  0.64971811  0.78960776    -0.00900
Br1531     Br  0.15247624  0.61741796  0.69453145    -0.00800
Br1532     Br  0.16732880  0.59619801  0.74638001    -0.00800
C1533       C  0.15535102  0.49658495  0.82349809    -0.01900
C1534       C  0.14074872  0.51122757  0.83697932     0.07800
C1535       C  0.12448774  0.50124512  0.85260659    -0.02000
C1536       C  0.12276612  0.47680544  0.85462716    -0.02000
C1537       C  0.13692125  0.46218145  0.84068729     0.07900
C1538       C  0.15338283  0.47209427  0.82528899    -0.02200
Br1539     Br  0.17254274  0.45217044  0.80586143    -0.00800
Br1540     Br  0.17861517  0.51000470  0.80315810    -0.00900
Br1541     Br  0.10159914  0.46338968  0.87728527    -0.00800
Br1542     Br  0.10346225  0.52091038  0.87035909    -0.00800
C1543       C  0.32620962  0.72332493  0.14299193    -0.01900
C1544       C  0.33853432  0.70938335  0.12679019     0.07800
C1545       C  0.35864987  0.71825166  0.11582821    -0.02000
C1546       C  0.36659740  0.74085591  0.12127480    -0.02000
C1547       C  0.35453452  0.75467466  0.13784086     0.07900
C1548       C  0.33431868  0.74584678  0.14868080    -0.02200
Br1549     Br  0.31831360  0.76413102  0.17207922    -0.00800
Br1550     Br  0.29844125  0.71133301  0.15772332    -0.00900
Br1551     Br  0.39325228  0.75340587  0.10489350    -0.00800
Br1552     Br  0.37443946  0.69999748  0.09215091    -0.00800
C1553       C  0.35268420  0.72114009  0.89158024    -0.01900
C1554       C  0.34363975  0.70518559  0.87507793     0.07800
C1555       C  0.34076698  0.71235261  0.85154588    -0.02000
C1556       C  0.34737005  0.73508006  0.84455018    -0.02000
C1557       C  0.35684186  0.75071111  0.86097798     0.07900
C1558       C  0.35939309  0.74371879  0.88448841    -0.02200
Br1559     Br  0.37275792  0.76499616  0.90694302    -0.00800
Br1560     Br  0.35480508  0.71270007  0.92428803    -0.00900
Br1561     Br  0.34323079  0.74504643  0.81256193    -0.00800
Br1562     Br  0.32879092  0.69080705  0.82858312    -0.00800
C1563       C  0.24739556  0.62425516  0.84914593    -0.01900
C1564       C  0.25334185  0.61962499  0.87269366     0.07800
C1565       C  0.23684823  0.60903602  0.88767554    -0.02000
C1566       C  0.21442591  0.60371970  0.87937272    -0.02000
C1567       C  0.20854412  0.60825030  0.85584605     0.07900
C1568       C  0.22510322  0.61840608  0.84071568    -0.02200
Br1569     Br  0.21680367  0.62541691  0.80870972    -0.00800
Br1570     Br  0.26925427  0.63970075  0.82864555    -0.00900
Br1571     Br  0.19205907  0.58923304  0.90007087    -0.00800
Br1572     Br  0.24536547  0.60018232  0.91920479    -0.00800
C1573       C  0.29998747  0.65664548  0.98926796    -0.01900
C1574       C  0.31837325  0.64496891  0.97762795     0.07800
C1575       C  0.33576451  0.63344211  0.99086747    -0.02000
C1576       C  0.33473558  0.63360848  0.01548723    -0.02000
C1577       C  0.31638007  0.64530682  0.02704101     0.07900
C1578       C  0.29902247  0.65680848  0.01390407    -0.02200
Br1579     Br  0.27430973  0.67356201  0.02970054    -0.00800
Br1580     Br  0.27647616  0.67325744  0.97166530    -0.00900
Br1581     Br  0.35760191  0.61624523  0.03331065    -0.00800
Br1582     Br  0.36018156  0.61577480  0.97552017    -0.00800
C1583       C  0.12402524  0.62464816  0.26783292    -0.01900
C1584       C  0.10142689  0.63265260  0.27335963     0.07800
C1585       C  0.08390790  0.63220960  0.25601727    -0.02000
C1586       C  0.08906955  0.62413842  0.23325124    -0.02000
C1587       C  0.11165028  0.61598041  0.22781574     0.07900
C1588       C  0.12906401  0.61617119  0.24521561    -0.02200
Br1589     Br  0.16019690  0.60566215  0.23785512    -0.00800
Br1590     Br  0.14846248  0.62628870  0.29092173    -0.00900
Br1591     Br  0.06479895  0.62302920  0.20990338    -0.00800
Br1592     Br  0.05236031  0.64109177  0.26383577    -0.00800
C1593       C  0.22389528  0.62422360  0.10842899    -0.01900
C1594       C  0.24077099  0.62868402  0.12590361     0.07800
C1595       C  0.23409250  0.62792149  0.14969814    -0.02000
C1596       C  0.21112029  0.62180687  0.15596873    -0.02000
C1597       C  0.19449152  0.61644261  0.13853755     0.07900
C1598       C  0.20090373  0.61820633  0.11471998    -0.02200
Br1599     Br  0.17876203  0.61070788  0.09044747    -0.00800
Br1600     Br  0.23240766  0.62455557  0.07563941    -0.00900
Br1601     Br  0.20231413  0.62176940  0.18861816    -0.00800
Br1602     Br  0.25605786  0.63630167  0.17385503    -0.00800
C1603       C  0.13749627  0.34937487  0.28166270    -0.01900
C1604       C  0.11642258  0.35700206  0.29192876     0.07800
C1605       C  0.10029694  0.36976189  0.27827358    -0.02000
C1606       C  0.10512575  0.37464216  0.25453764    -0.02000
C1607       C  0.12608194  0.36676891  0.24420270     0.07900
C1608       C  0.14237940  0.35438580  0.25795002    -0.02200
Br1609     Br  0.17102074  0.34339024  0.24402902    -0.00800
Br1610     Br  0.15993942  0.33238307  0.30022704    -0.00900
Br1611     Br  0.08325581  0.39284540  0.23636543    -0.00800
Br1612     Br  0.07082365  0.37934087  0.29158411    -0.00800
C1613       C  0.22659976  0.37408320  0.15485091    -0.01900
C1614       C  0.20699193  0.36256738  0.14543127     0.07800
C1615       C  0.21026274  0.34526086  0.12812159    -0.02000
C1616       C  0.23285450  0.34021895  0.11965686    -0.02000
C1617       C  0.25239939  0.35222343  0.12868949     0.07900
C1618       C  0.24917663  0.36873163  0.14675456    -0.02200
Br1619     Br  0.27552057  0.38509504  0.15979828    -0.00800
Br1620     Br  0.22274328  0.39718458  0.17926254    -0.00900
Br1621     Br  0.23693254  0.31627371  0.09611355    -0.00800
Br1622     Br  0.18373755  0.32937048  0.11494946    -0.00800
C1623       C  0.15690740  0.47635349  0.17417853    -0.01900
C1624       C  0.13757603  0.46239775  0.16833650     0.07800
C1625       C  0.11641446  0.47301979  0.16157110    -0.02000
C1626       C  0.11457375  0.49750284  0.16073799    -0.02000
C1627       C  0.13402557  0.51140579  0.16599881     0.07900
C1628       C  0.15517254  0.50088476  0.17280097    -0.02200
Br1629     Br  0.18151399  0.52016411  0.18069969    -0.00800
Br1630     Br  0.18602325  0.46189743  0.18300583    -0.00900
Br1631     Br  0.08546475  0.51210246  0.15199934    -0.00800
Br1632     Br  0.08963737  0.45411487  0.15400458    -0.00800
C1633       C  0.90640191  0.57470758  0.08715089    -0.01900
C1634       C  0.92771377  0.58605779  0.09255933     0.07800
C1635       C  0.92627239  0.60600094  0.10731319    -0.02000
C1636       C  0.90661024  0.60924457  0.12189866    -0.02000
C1637       C  0.88725643  0.59431774  0.11988749     0.07900
C1638       C  0.88659500  0.57813963  0.10131996    -0.02200
Br1639     Br  0.85923440  0.55921469  0.09617609    -0.00800
Br1640     Br  0.90320159  0.55589522  0.05932119    -0.00900
Br1641     Br  0.90557344  0.63495434  0.14373817    -0.00800
Br1642     Br  0.94677092  0.63231916  0.10276285    -0.00800
C1643       C  0.04177887  0.57750570  0.13204810    -0.01900
C1644       C  0.06136202  0.58383670  0.11848902     0.07800
C1645       C  0.05878917  0.58661561  0.09405349    -0.02000
C1646       C  0.03673368  0.58375052  0.08339270    -0.02000
C1647       C  0.01705278  0.57764909  0.09697236     0.07900
C1648       C  0.01985602  0.57431842  0.12144110    -0.02200
Br1649     Br  0.99440396  0.56293408  0.14054012    -0.00800
Br1650     Br  0.04527903  0.57118939  0.16516197    -0.00900
Br1651     Br  0.03352343  0.58892145  0.05021289    -0.00800
Br1652     Br  0.08535942  0.59504678  0.07519563    -0.00800
C1653       C  0.94102580  0.40093220  0.12579134    -0.01900
C1654       C  0.94413045  0.39513575  0.10188108     0.07800
C1655       C  0.92488261  0.38673092  0.08911595    -0.02000
C1656       C  0.90309065  0.38334771  0.10034504    -0.02000
C1657       C  0.90055336  0.38764511  0.12462379     0.07900
C1658       C  0.91971711  0.39654769  0.13718119    -0.02200
Br1659     Br  0.91644950  0.40474337  0.16983430    -0.00800
Br1660     Br  0.96468483  0.41821015  0.14239702    -0.00900
Br1661     Br  0.87687201  0.37236330  0.08251492    -0.00800
Br1662     Br  0.92833282  0.37998661  0.05625531    -0.00800
C1663       C  0.03418878  0.37824629  0.12672190    -0.01900
C1664       C  0.03347373  0.38904103  0.10392503     0.07800
C1665       C  0.05562704  0.39499654  0.09373535    -0.02000
C1666       C  0.07679614  0.38993305  0.10543208    -0.02000
C1667       C  0.07675431  0.37861871  0.12722774     0.07900
C1668       C  0.05557535  0.37162972  0.13704313    -0.02200
Br1669     Br  0.05634984  0.35357033  0.16580766    -0.00800
Br1670     Br  0.00826775  0.37698416  0.14820898    -0.00900
Br1671     Br  0.10621238  0.40051926  0.09268339    -0.00800
Br1672     Br  0.05851953  0.41292560  0.06507412    -0.00800
C1673       C  0.96165267  0.47072286  0.08739351    -0.01900
C1674       C  0.98455503  0.46142475  0.08670083     0.07800
C1675       C  0.00315634  0.47772465  0.08542976    -0.02000
C1676       C  0.99890012  0.50203619  0.08685549    -0.02000
C1677       C  0.97610550  0.51125358  0.08402206     0.07900
C1678       C  0.95754164  0.49481123  0.08351788    -0.02200
Br1679     Br  0.92627826  0.50344889  0.07475180    -0.00800
Br1680     Br  0.93515365  0.45167578  0.09537769    -0.00900
Br1681     Br  0.02487291  0.52142007  0.09530739    -0.00800
Br1682     Br  0.03472160  0.46816949  0.07844671    -0.00800
C1683       C  0.90597895  0.39755783  0.91340459    -0.01900
C1684       C  0.92728988  0.38623867  0.90729889     0.07800
C1685       C  0.92578570  0.36776168  0.89064101    -0.02000
C1686       C  0.90603887  0.36594747  0.87591780    -0.02000
C1687       C  0.88659080  0.38060904  0.87937895     0.07900
C1688       C  0.88608883  0.39530851  0.89915000    -0.02200
Br1689     Br  0.85858921  0.41368297  0.90613953    -0.00800
Br1690     Br  0.90277617  0.41494914  0.94220247    -0.00900
Br1691     Br  0.90482953  0.34224979  0.85189600    -0.00800
Br1692     Br  0.94631672  0.34099025  0.89204718    -0.00800
C1693       C  0.02080011  0.39654129  0.88210287    -0.01900
C1694       C  0.01712416  0.39264884  0.90634100     0.07800
C1695       C  0.03620199  0.38551847  0.92031650    -0.02000
C1696       C  0.05838865  0.38167016  0.91010205    -0.02000
C1697       C  0.06170679  0.38467879  0.88579042     0.07900
C1698       C  0.04282362  0.39242325  0.87197248    -0.02200
Br1699     Br  0.04758495  0.39982613  0.83931936    -0.00800
Br1700     Br  0.99661921  0.41046174  0.86294430    -0.00900
Br1701     Br  0.08420720  0.37195510  0.92938161    -0.00800
Br1702     Br  0.03218292  0.38092998  0.95348377    -0.00800
C1703       C  0.97961893  0.38242025  0.99210039    -0.01900
C1704       C  0.97674058  0.40358632  0.97949339     0.07800
C1705       C  0.97826096  0.42487556  0.99182911    -0.02000
C1706       C  0.98394705  0.42518738  0.01580379    -0.02000
C1707       C  0.98593210  0.40423129  0.02871554     0.07900
C1708       C  0.98368911  0.38273111  0.01660820    -0.02200
Br1709     Br  0.98552832  0.35353003  0.03350176    -0.00800
Br1710     Br  0.97854110  0.35284570  0.97583368    -0.00900
Br1711     Br  0.99115834  0.45469447  0.02999202    -0.00800
Br1712     Br  0.97045241  0.45396763  0.97683427    -0.00800
C1713       C  0.94087540  0.57023797  0.87731599    -0.01900
C1714       C  0.94460976  0.57651967  0.90097178     0.07800
C1715       C  0.92639875  0.58733139  0.91357523    -0.02000
C1716       C  0.90520646  0.59306260  0.90225536    -0.02000
C1717       C  0.90209990  0.58798056  0.87822324     0.07900
C1718       C  0.92012286  0.57650470  0.86585580    -0.02200
Br1719     Br  0.91610131  0.56774001  0.83335175    -0.00800
Br1720     Br  0.96270884  0.55008031  0.86121948    -0.00900
Br1721     Br  0.88089335  0.60886861  0.91944493    -0.00800
Br1722     Br  0.93026848  0.59377007  0.94641702    -0.00800
C1723       C  0.05580968  0.57634479  0.90751880    -0.01900
C1724       C  0.03345302  0.58064466  0.89707630     0.07800
C1725       C  0.03359955  0.58954692  0.87352833    -0.02000
C1726       C  0.05454145  0.59649906  0.86262122    -0.02000
C1727       C  0.07610587  0.59207758  0.87319101     0.07900
C1728       C  0.07666303  0.58278448  0.89597834    -0.02200
Br1729     Br  0.10644128  0.57717370  0.91090215    -0.00800
Br1730     Br  0.05968495  0.55795248  0.93579049    -0.00900
Br1731     Br  0.05394343  0.61223955  0.83252267    -0.00800
Br1732     Br  0.00744755  0.58774922  0.85246391    -0.00800
C1733       C  0.98559580  0.54481881  0.98624978    -0.01900
C1734       C  0.98727302  0.56578481  0.97327376     0.07800
C1735       C  0.98525740  0.58729617  0.98540017    -0.02000
C1736       C  0.98136177  0.58764266  0.00992493    -0.02000
C1737       C  0.97880274  0.56648995  0.02262263     0.07900
C1738       C  0.98045853  0.54516801  0.01037667    -0.02200
Br1739     Br  0.97353045  0.51610650  0.02582303    -0.00800
Br1740     Br  0.99224427  0.51521151  0.97189553    -0.00900
Br1741     Br  0.97986429  0.61731023  0.02603504    -0.00800
Br1742     Br  0.98721760  0.61650326  0.96851456    -0.00800
C1743       C  0.00326180  0.49277400  0.91705762    -0.01900
C1744       C  0.98457868  0.50909636  0.91557012     0.07800
C1745       C  0.96167122  0.49999682  0.91543709    -0.02000
C1746       C  0.95766770  0.47601772  0.91965670    -0.02000
C1747       C  0.97623529  0.45947911  0.91903565     0.07900
C1748       C  0.99908453  0.46846202  0.91626279    -0.02200
Br1749     Br  0.02541909  0.44869547  0.90940268    -0.00800
Br1750     Br  0.03484179  0.50248377  0.92358773    -0.00900
Br1751     Br  0.92666518  0.46761561  0.92947351    -0.00800
Br1752     Br  0.93495455  0.51918914  0.90806746    -0.00800
C1753       C  0.09392615  0.93985772  0.62320704    -0.01900
C1754       C  0.10189373  0.95674426  0.60678831     0.07800
C1755       C  0.12559037  0.95475845  0.59973961    -0.02000
C1756       C  0.13770657  0.93347953  0.60249264    -0.02000
C1757       C  0.12685900  0.91428188  0.61342006     0.07900
C1758       C  0.10569002  0.91814297  0.62541862    -0.02200
Br1759     Br  0.09233230  0.89377288  0.64443789    -0.00800
Br1760     Br  0.07235847  0.94845349  0.64771782    -0.00900
Br1761     Br  0.16964274  0.93087870  0.59188459    -0.00800
Br1762     Br  0.14267905  0.98128884  0.58809673    -0.00800
C1763       C  0.10405228  0.07243955  0.61844815    -0.01900
C1764       C  0.11261259  0.08473602  0.59892743     0.07800
C1765       C  0.10618511  0.07766363  0.57622841    -0.02000
C1766       C  0.09305737  0.05717176  0.57289880    -0.02000
C1767       C  0.08719587  0.04287778  0.59232564     0.07900
C1768       C  0.09115864  0.05175370  0.61518685    -0.02200
Br1769     Br  0.07821837  0.03609758  0.64224133    -0.00800
Br1770     Br  0.11152240  0.08287544  0.64965919    -0.00900
Br1771     Br  0.08337198  0.04990488  0.54152613    -0.00800
Br1772     Br  0.11546337  0.09630017  0.54947046    -0.00800
C1773       C  0.09665379  0.94256870  0.39330673    -0.01900
C1774       C  0.09312352  0.95110434  0.41641980     0.07800
C1775       C  0.09757467  0.93575768  0.43543679    -0.02000
C1776       C  0.10723874  0.91335373  0.43151147    -0.02000
C1777       C  0.11168068  0.90536598  0.40852749     0.07900
C1778       C  0.10588152  0.91992993  0.38946621    -0.02200
Br1779     Br  0.10995483  0.90856452  0.35789291    -0.00800
Br1780     Br  0.08754191  0.96111266  0.36645819    -0.00900
Br1781     Br  0.11657892  0.89459399  0.45812361    -0.00800
Br1782     Br  0.09157267  0.94479301  0.46734603    -0.00800
C1783       C  0.09688975  0.05514261  0.38843765    -0.01900
C1784       C  0.10516521  0.03851211  0.40505226     0.07800
C1785       C  0.12855752  0.04135933  0.41274810    -0.02000
C1786       C  0.14022403  0.06272509  0.40942310    -0.02000
C1787       C  0.12907227  0.08137827  0.39784699     0.07900
C1788       C  0.10786472  0.07714043  0.38628836    -0.02200
Br1789     Br  0.09325260  0.10152624  0.36809220    -0.00800
Br1790     Br  0.07662678  0.04596531  0.36315432    -0.00900
Br1791     Br  0.17208086  0.06617192  0.41997280    -0.00800
Br1792     Br  0.14613990  0.01575933  0.42581012    -0.00800
C1793       C  0.05611445  0.99666682  0.49225632    -0.01900
C1794       C  0.07745711  0.99937387  0.48025887     0.07800
C1795       C  0.09821797  0.99864229  0.49355830    -0.02000
C1796       C  0.09745612  0.99697158  0.51817461    -0.02000
C1797       C  0.07615180  0.99318918  0.52996339     0.07900
C1798       C  0.05560428  0.99221413  0.51658185    -0.02200
Br1799     Br  0.02687442  0.98293788  0.53102249    -0.00800
Br1800     Br  0.02724115  0.00084828  0.47612647    -0.00900
Br1801     Br  0.12572714  0.00200035  0.53542033    -0.00800
Br1802     Br  0.12815197  0.99725971  0.47854933    -0.00800
C1803       C  0.89894467  0.94596659  0.61826675    -0.01900
C1804       C  0.90376953  0.95218486  0.59466924     0.07800
C1805       C  0.89996447  0.93524976  0.57696836    -0.02000
C1806       C  0.88907910  0.91390708  0.58244813    -0.02000
C1807       C  0.88153157  0.90930092  0.60544343     0.07900
C1808       C  0.88707647  0.92502012  0.62349086    -0.02200
Br1809     Br  0.87831300  0.91780219  0.65529155    -0.00800
Br1810     Br  0.90968467  0.96541040  0.64370013    -0.00900
Br1811     Br  0.88256303  0.89163935  0.55780342    -0.00800
Br1812     Br  0.90818954  0.94063950  0.54477208    -0.00800
C1813       C  0.89724813  0.06428619  0.59265626    -0.01900
C1814       C  0.88903624  0.04107214  0.59657563     0.07800
C1815       C  0.86512518  0.03890741  0.60342769    -0.02000
C1816       C  0.85230597  0.05866558  0.61097880    -0.02000
C1817       C  0.86140814  0.08131257  0.60847596     0.07900
C1818       C  0.88406759  0.08400988  0.59954932    -0.02200
Br1819     Br  0.89619098  0.11511529  0.59405345    -0.00800
Br1820     Br  0.92320845  0.07022618  0.57208623    -0.00900
Br1821     Br  0.82141840  0.05487771  0.62399930    -0.00800
Br1822     Br  0.84633943  0.01208522  0.59518642    -0.00800
C1823       C  0.98089110  0.97724584  0.59211902    -0.01900
C1824       C  0.97039984  0.99982473  0.59120720     0.07800
C1825       C  0.98572106  0.01934905  0.59190166    -0.02000
C1826       C  0.01008501  0.01622026  0.59353415    -0.02000
C1827       C  0.02033633  0.99395893  0.59040701     0.07900
C1828       C  0.00526331  0.97438497  0.58938191    -0.02200
Br1829     Br  0.01700427  0.94347710  0.58202804    -0.00800
Br1830     Br  0.96303130  0.94982114  0.60012559    -0.00900
Br1831     Br  0.02890281  0.04282568  0.60192302    -0.00800
Br1832     Br  0.97513042  0.05107122  0.58866260    -0.00800
C1833       C  0.86889068  0.92361069  0.38370059    -0.01900
C1834       C  0.87111558  0.90320011  0.39727297     0.07800
C1835       C  0.89025643  0.90077497  0.41235378    -0.02000
C1836       C  0.90531857  0.91974876  0.41616899    -0.02000
C1837       C  0.90085483  0.94196784  0.40556558     0.07900
C1838       C  0.88449255  0.94243933  0.38687995    -0.02200
Br1839     Br  0.88653572  0.96540983  0.36222613    -0.00800
Br1840     Br  0.84492751  0.92521981  0.36013038    -0.00900
Br1841     Br  0.93170729  0.91429688  0.43642509    -0.00800
Br1842     Br  0.89477407  0.87185760  0.42947376    -0.00800
C1843       C  0.88550140  0.06808369  0.43067742    -0.01900
C1844       C  0.88025495  0.07481681  0.40748332     0.07800
C1845       C  0.88825883  0.06088285  0.38878830    -0.02000
C1846       C  0.90053878  0.03992276  0.39325949    -0.02000
C1847       C  0.90390784  0.03191744  0.41649988     0.07900
C1848       C  0.89745915  0.04693181  0.43518152    -0.02200
Br1849     Br  0.90431571  0.03931496  0.46720664    -0.00800
Br1850     Br  0.87440415  0.08681054  0.45667785    -0.00900
Br1851     Br  0.91441213  0.02316972  0.36740224    -0.00800
Br1852     Br  0.88265818  0.07067442  0.35694298    -0.00800
C1853       C  0.98460700  0.01279942  0.41744548    -0.01900
C1854       C  0.97549437  0.98973784  0.41779145     0.07800
C1855       C  0.99182537  0.97098482  0.41672959    -0.02000
C1856       C  0.01585728  0.97529081  0.41429800    -0.02000
C1857       C  0.02496610  0.99787056  0.41780348     0.07900
C1858       C  0.00888783  0.01673938  0.41964161    -0.02200
Br1859     Br  0.01912401  0.04791586  0.42755097    -0.00800
Br1860     Br  0.96465973  0.03942926  0.41173259    -0.00900
Br1861     Br  0.03571722  0.94998554  0.40412750    -0.00800
Br1862     Br  0.98309816  0.93887469  0.42145326    -0.00800
C1863       C  0.94116638  0.98838770  0.49236958    -0.01900
C1864       C  0.92064762  0.98537964  0.47939409     0.07800
C1865       C  0.89885109  0.98652177  0.49101272    -0.02000
C1866       C  0.89788435  0.99094975  0.51526259    -0.02000
C1867       C  0.91858305  0.99534480  0.52791332     0.07900
C1868       C  0.94013350  0.99453646  0.51615481    -0.02200
Br1869     Br  0.96817950  0.00397254  0.53176643    -0.00800
Br1870     Br  0.97075377  0.98198159  0.47809623    -0.00900
Br1871     Br  0.86809797  0.98986222  0.53112353    -0.00800
Br1872     Br  0.86999702  0.98375854  0.47379373    -0.00800
C1873       C  0.60580154  0.11259987  0.93047708    -0.01900
C1874       C  0.59279231  0.10970201  0.90990443     0.07800
C1875       C  0.57764096  0.09068095  0.90798598    -0.02000
C1876       C  0.57308841  0.07637930  0.92756874    -0.02000
C1877       C  0.58383559  0.08099882  0.94974550     0.07900
C1878       C  0.60248074  0.09737486  0.94975072    -0.02200
Br1879     Br  0.62700450  0.09594680  0.97265601    -0.00800
Br1880     Br  0.62828740  0.13751080  0.93199512    -0.00900
Br1881     Br  0.55163381  0.05086610  0.92274309    -0.00800
Br1882     Br  0.56237142  0.08497468  0.87831919    -0.00800
C1883       C  0.59848342  0.07954388  0.04770626    -0.01900
C1884       C  0.57539003  0.07430548  0.04070637     0.07800
C1885       C  0.55733557  0.07754471  0.05749985    -0.02000
C1886       C  0.56193185  0.08896048  0.07902991    -0.02000
C1887       C  0.58453235  0.09712753  0.08427185     0.07900
C1888       C  0.60291509  0.09142411  0.06893197    -0.02200
Br1889     Br  0.63445726  0.09904427  0.07754661    -0.00800
Br1890     Br  0.62450961  0.06825087  0.02947243    -0.00900
Br1891     Br  0.53669607  0.09458636  0.10082682    -0.00800
Br1892     Br  0.52611802  0.06658775  0.05223257    -0.00800
C1893       C  0.39957014  0.10748689  0.96274364    -0.01900
C1894       C  0.39612097  0.08294187  0.96525950     0.07800
C1895       C  0.38934360  0.06996043  0.94520336    -0.02000
C1896       C  0.38588371  0.08124178  0.92343382    -0.02000
C1897       C  0.38881878  0.10557766  0.92140839     0.07900
C1898       C  0.39573540  0.11860258  0.94107976    -0.02200
Br1899     Br  0.40175894  0.15181807  0.93794507    -0.00800
Br1900     Br  0.41121275  0.12671723  0.98792663    -0.00900
Br1901     Br  0.37630717  0.06347850  0.89636394    -0.00800
Br1902     Br  0.38380440  0.03680485  0.94694155    -0.00800
C1903       C  0.40950490  0.07733838  0.07553858    -0.01900
C1904       C  0.39556069  0.08046899  0.05519880     0.07800
C1905       C  0.37549636  0.09495206  0.05748497    -0.02000
C1906       C  0.37365430  0.11085196  0.07628218    -0.02000
C1907       C  0.38992828  0.11017829  0.09464523     0.07900
C1908       C  0.40720287  0.09264426  0.09473583    -0.02200
Br1909     Br  0.42906927  0.09069340  0.12038885    -0.00800
Br1910     Br  0.43044116  0.05101865  0.07865746    -0.00900
Br1911     Br  0.34834594  0.13312557  0.07723584    -0.00800
Br1912     Br  0.34772787  0.08903677  0.03934756    -0.00800
C1913       C  0.49842763  0.03905783  0.98829796    -0.01900
C1914       C  0.51202110  0.05849879  0.99408017     0.07800
C1915       C  0.50104689  0.07960258  0.00042024    -0.02000
C1916       C  0.47671661  0.08051110  0.00351506    -0.02000
C1917       C  0.46265210  0.06048054  0.99913049     0.07900
C1918       C  0.47389994  0.04038165  0.98929143    -0.02200
Br1919     Br  0.45754147  0.01479740  0.97481702    -0.00800
Br1920     Br  0.51368933  0.01062928  0.97813420    -0.00900
Br1921     Br  0.46339775  0.11043018  0.01181344    -0.00800
Br1922     Br  0.51960548  0.10743693  0.00537410    -0.00800
C1923       C  0.60229595  0.88413681  0.94569289    -0.01900
C1924       C  0.58152141  0.88059984  0.95857583     0.07800
C1925       C  0.56541582  0.86386273  0.95047003    -0.02000
C1926       C  0.56880324  0.85265999  0.92879823    -0.02000
C1927       C  0.58868537  0.85750737  0.91505249     0.07900
C1928       C  0.60557304  0.87313320  0.92370836    -0.02200
Br1929     Br  0.63404153  0.87788362  0.90642798    -0.00800
Br1930     Br  0.62743158  0.90178917  0.95933652    -0.00900
Br1931     Br  0.54581811  0.83043501  0.91813646    -0.00800
Br1932     Br  0.53991802  0.85384746  0.97006935    -0.00800
C1933       C  0.60363681  0.88150626  0.06319641    -0.01900
C1934       C  0.58740396  0.87404369  0.04598572     0.07800
C1935       C  0.57708660  0.85165846  0.04949184    -0.02000
C1936       C  0.57794424  0.84063731  0.07153421    -0.02000
C1937       C  0.59023067  0.85091666  0.09020315     0.07900
C1938       C  0.60413814  0.87069810  0.08555127    -0.02200
Br1939     Br  0.62336596  0.88368775  0.10992575    -0.00800
Br1940     Br  0.62941116  0.90149103  0.05501614    -0.00900
Br1941     Br  0.56254311  0.81084750  0.07579815    -0.00800
Br1942     Br  0.56216876  0.83495874  0.02421564    -0.00800
C1943       C  0.57512777  0.98868831  0.97617221    -0.01900
C1944       C  0.57420606  0.00437259  0.99545730     0.07800
C1945       C  0.57538794  0.99446385  0.01820165    -0.02000
C1946       C  0.57414848  0.96993567  0.02147903    -0.02000
C1947       C  0.57686248  0.95436604  0.00223040     0.07900
C1948       C  0.57874696  0.96448224  0.97961381    -0.02200
Br1949     Br  0.58771572  0.94621188  0.95260364    -0.00800
Br1950     Br  0.56907179  0.99872687  0.94452118    -0.00900
Br1951     Br  0.56578120  0.95894525  0.05236020    -0.00800
Br1952     Br  0.58112031  0.01368388  0.04536358    -0.00800
C1953       C  0.40476704  0.85625340  0.95166737    -0.01900
C1954       C  0.39634457  0.87940606  0.95587828     0.07800
C1955       C  0.37977709  0.88837248  0.93963290    -0.02000
C1956       C  0.37683029  0.87775389  0.91748768    -0.02000
C1957       C  0.38754598  0.85618842  0.91248132     0.07900
C1958       C  0.40067844  0.84500953  0.93008193    -0.02200
Br1959     Br  0.41447785  0.81461472  0.92420885    -0.00800
Br1960     Br  0.42072807  0.83842301  0.97555715    -0.00900
Br1961     Br  0.35678539  0.89208895  0.89442421    -0.00800
Br1962     Br  0.35584602  0.90995850  0.94928816    -0.00800
C1963       C  0.38167273  0.89359056  0.05778794    -0.01900
C1964       C  0.40013137  0.88503589  0.04383543     0.07800
C1965       C  0.41357127  0.86596065  0.05197193    -0.02000
C1966       C  0.40919355  0.85623703  0.07412605    -0.02000
C1967       C  0.39014806  0.86407356  0.08757691     0.07900
C1968       C  0.37643955  0.88289067  0.07948541    -0.02200
Br1969     Br  0.34989348  0.89311079  0.09750133    -0.00800
Br1970     Br  0.36297689  0.91927664  0.04668208    -0.00900
Br1971     Br  0.43003513  0.83266568  0.08660221    -0.00800
Br1972     Br  0.43736044  0.85197863  0.03262025    -0.00800
C1973       C  0.38626013  0.96976468  0.99807357    -0.01900
C1974       C  0.40760109  0.95762031  0.00191257     0.07800
C1975       C  0.42664289  0.97076711  0.01071135    -0.02000
C1976       C  0.42417668  0.99470347  0.01563969    -0.02000
C1977       C  0.40462307  0.00711982  0.00764646     0.07900
C1978       C  0.38508057  0.99443999  0.00011850    -0.02200
Br1979     Br  0.35603330  0.01072595  0.99508904    -0.00800
Br1980     Br  0.35781996  0.95304111  0.99233312    -0.00900
Br1981     Br  0.44723094  0.00999064  0.03490861    -0.00800
Br1982     Br  0.45752787  0.95836978  0.01384789    -0.00800
C1983       C  0.48049193  0.91039530  0.98116178    -0.01900
C1984       C  0.46714977  0.90564134  0.00151599     0.07800
C1985       C  0.47899342  0.90511344  0.02326082    -0.02000
C1986       C  0.50340187  0.90768405  0.02387556    -0.02000
C1987       C  0.51693369  0.90580958  0.00305390     0.07900
C1988       C  0.50491023  0.90795016  0.98134831    -0.02200
Br1989     Br  0.51975081  0.90684886  0.95095798    -0.00800
Br1990     Br  0.46588515  0.92412723  0.95371975    -0.00900
Br1991     Br  0.51734284  0.91754907  0.05313706    -0.00800
Br1992     Br  0.46297041  0.90204695  0.05284150    -0.00800
C1993       C  0.44443964  0.08577880  0.62908366    -0.01900
C1994       C  0.44526732  0.09377151  0.60546680     0.07800
C1995       C  0.42724557  0.10911012  0.59804068    -0.02000
C1996       C  0.40623835  0.11048757  0.61089041    -0.02000
C1997       C  0.40393551  0.09843549  0.63231839     0.07900
C1998       C  0.42354472  0.08699750  0.64187814    -0.02200
Br1999     Br  0.42150930  0.07063461  0.67151036    -0.00800
Br2000     Br  0.47187295  0.07355772  0.64475640    -0.00900
Br2001     Br  0.38096151  0.12975429  0.59959483    -0.00800
Br2002     Br  0.43304281  0.13284529  0.57468457    -0.00800
C2003       C  0.53458901  0.11488036  0.60255856    -0.01900
C2004       C  0.53143829  0.09582316  0.58688325     0.07800
C2005       C  0.55206825  0.08423681  0.57959325    -0.02000
C2006       C  0.57229755  0.08542068  0.59368662    -0.02000
C2007       C  0.57257967  0.09972234  0.61380208     0.07900
C2008       C  0.55417225  0.11555574  0.61732387    -0.02200
Br2009     Br  0.55595749  0.13849058  0.64198985    -0.00800
Br2010     Br  0.51588626  0.14295535  0.59965312    -0.00900
Br2011     Br  0.59930235  0.06689823  0.58584022    -0.00800
Br2012     Br  0.55529681  0.07216675  0.54826528    -0.00800
C2013       C  0.43523599  0.09032478  0.35714967    -0.01900
C2014       C  0.41469396  0.09313317  0.37051017     0.07800
C2015       C  0.41659871  0.09655224  0.39489469    -0.02000
C2016       C  0.43865064  0.09639528  0.40579980    -0.02000
C2017       C  0.45901118  0.09059178  0.39299412     0.07900
C2018       C  0.45720684  0.08891330  0.36820157    -0.02200
Br2019     Br  0.48411496  0.08489606  0.34834999    -0.00800
Br2020     Br  0.43343979  0.08897490  0.32329782    -0.00900
Br2021     Br  0.44093045  0.10670930  0.43786786    -0.00800
Br2022     Br  0.38896960  0.09949569  0.41398772    -0.00800
C2023       C  0.57573172  0.07718696  0.37182975    -0.01900
C2024       C  0.58912810  0.09652209  0.37809545     0.07800
C2025       C  0.58169165  0.11087634  0.39664662    -0.02000
C2026       C  0.56075638  0.10572939  0.40905356    -0.02000
C2027       C  0.54673681  0.08604915  0.40270059     0.07900
C2028       C  0.55397461  0.07344330  0.38218833    -0.02200
Br2029     Br  0.53383363  0.05346022  0.36415820    -0.00800
Br2030     Br  0.58750599  0.05506465  0.34880343    -0.00900
Br2031     Br  0.55069650  0.12832367  0.43181631    -0.00800
Br2032     Br  0.59977158  0.13830753  0.40390903    -0.00800
C2033       C  0.46928579  0.06701656  0.48407221    -0.01900
C2034       C  0.48576361  0.08222602  0.47288541     0.07800
C2035       C  0.49577418  0.09974189  0.48742767    -0.02000
C2036       C  0.49456916  0.09823690  0.51215578    -0.02000
C2037       C  0.48145389  0.08056033  0.52301076     0.07900
C2038       C  0.46795604  0.06587730  0.50881740    -0.02200
Br2039     Br  0.44738733  0.04382381  0.52346344    -0.00800
Br2040     Br  0.44609356  0.04867117  0.46786329    -0.00900
Br2041     Br  0.51009907  0.12119316  0.53125541    -0.00800
Br2042     Br  0.50657460  0.12868797  0.47401182    -0.00800
C2043       C  0.42020197  0.88526150  0.41028454    -0.01900
C2044       C  0.43574512  0.90242607  0.40078600     0.07800
C2045       C  0.43002542  0.91142214  0.37791717    -0.02000
C2046       C  0.40959630  0.90480074  0.36618826    -0.02000
C2047       C  0.39393327  0.88928203  0.37660430     0.07900
C2048       C  0.39904218  0.87971043  0.39865373    -0.02200
Br2049     Br  0.37707534  0.85804842  0.41220556    -0.00800
Br2050     Br  0.42786243  0.86600035  0.43684206    -0.00900
Br2051     Br  0.40213131  0.91827878  0.33574163    -0.00800
Br2052     Br  0.44921965  0.93324490  0.36083629    -0.00800
C2053       C  0.54407839  0.89883619  0.40717259    -0.01900
C2054       C  0.52404709  0.90387687  0.39345913     0.07800
C2055       C  0.52660541  0.90380873  0.36865887    -0.02000
C2056       C  0.54860323  0.90015547  0.35819994    -0.02000
C2057       C  0.56862760  0.89713517  0.37210143     0.07900
C2058       C  0.56625736  0.89646591  0.39663787    -0.02200
Br2059     Br  0.59365267  0.89409545  0.41607825    -0.00800
Br2060     Br  0.54151673  0.89271454  0.44026136    -0.00900
Br2061     Br  0.55121635  0.89873759  0.32438340    -0.00800
Br2062     Br  0.50082235  0.90905473  0.34788448    -0.00800
C2063       C  0.48213196  0.98471139  0.43995785    -0.01900
C2064       C  0.48502714  0.97228945  0.41884580     0.07800
C2065       C  0.48894357  0.98497906  0.39812259    -0.02000
C2066       C  0.48835337  0.00950641  0.39860704    -0.02000
C2067       C  0.49025596  0.02139414  0.42009976     0.07900
C2068       C  0.48865245  0.00833304  0.44098168    -0.02200
Br2069     Br  0.49951296  0.02052299  0.47030942    -0.00800
Br2070     Br  0.46650003  0.97095746  0.46644210    -0.00900
Br2071     Br  0.48235142  0.02623194  0.37013656    -0.00800
Br2072     Br  0.49629898  0.96931324  0.36931504    -0.00800
C2073       C  0.44661761  0.91607122  0.61398418    -0.01900
C2074       C  0.45187877  0.90656270  0.59171736     0.07800
C2075       C  0.43494197  0.89263729  0.58056502    -0.02000
C2076       C  0.41402731  0.88670825  0.59233332    -0.02000
C2077       C  0.41006737  0.89444109  0.61547809     0.07900
C2078       C  0.42630036  0.90953104  0.62603474    -0.02200
Br2079     Br  0.42037482  0.92228778  0.65691368    -0.00800
Br2080     Br  0.46576458  0.94010617  0.62736759    -0.00900
Br2081     Br  0.39136333  0.86705728  0.57722733    -0.00800
Br2082     Br  0.44000867  0.88211742  0.54906502    -0.00800
C2083       C  0.54242723  0.90685030  0.62509460    -0.01900
C2084       C  0.53851899  0.89820142  0.60203515     0.07800
C2085       C  0.55401604  0.88035420  0.59405381    -0.02000
C2086       C  0.57549782  0.87635172  0.60562889    -0.02000
C2087       C  0.58069286  0.88824964  0.62652511     0.07900
C2088       C  0.56367112  0.90281319  0.63663091    -0.02200
Br2089     Br  0.56992557  0.91866560  0.66597262    -0.00800
Br2090     Br  0.51842595  0.92219931  0.64292558    -0.00900
Br2091     Br  0.59734447  0.85361695  0.59367664    -0.00800
Br2092     Br  0.54394615  0.85713040  0.57174895    -0.00800
C2093       C  0.47187442  0.98210255  0.57566122    -0.01900
C2094       C  0.49456551  0.97195846  0.57619960     0.07800
C2095       C  0.51392416  0.98757434  0.57752589    -0.02000
C2096       C  0.51050010  0.01187869  0.58020849    -0.02000
C2097       C  0.48825885  0.02202033  0.57804423     0.07900
C2098       C  0.46878853  0.00671170  0.57605811    -0.02200
Br2099     Br  0.43696025  0.01840734  0.57479070    -0.00800
Br2100     Br  0.44386834  0.96335006  0.57555259    -0.00900
Br2101     Br  0.53613920  0.03047776  0.59106834    -0.00800
Br2102     Br  0.54597342  0.97730027  0.57348029    -0.00800
C2103       C  0.49488115  0.89237388  0.50912984    -0.01900
C2104       C  0.50066256  0.91312843  0.52109692     0.07800
C2105       C  0.50701439  0.93275042  0.50769021    -0.02000
C2106       C  0.50650905  0.93209706  0.48298350    -0.02000
C2107       C  0.49537451  0.91322244  0.47116137     0.07900
C2108       C  0.49141867  0.89258286  0.48452052    -0.02200
Br2109     Br  0.48441440  0.86348032  0.46895989    -0.00800
Br2110     Br  0.49293346  0.86336115  0.52625388    -0.00900
Br2111     Br  0.52449957  0.95600007  0.46734099    -0.00800
Br2112     Br  0.51750195  0.96071301  0.52290937    -0.00800
C2113       C  0.36857599  0.41047554  0.06739200    -0.01900
C2114       C  0.36361278  0.40296184  0.09040222     0.07800
C2115       C  0.37216591  0.41591302  0.10945427    -0.02000
C2116       C  0.38387684  0.43721193  0.10556373    -0.02000
C2117       C  0.38640461  0.44627690  0.08255077     0.07900
C2118       C  0.38011258  0.43189695  0.06341578    -0.02200
Br2119     Br  0.38687546  0.44080738  0.03161553    -0.00800
Br2120     Br  0.35975073  0.39107574  0.04118111    -0.00900
Br2121     Br  0.39736571  0.45341218  0.13195526    -0.00800
Br2122     Br  0.36641576  0.40531866  0.14102069    -0.00800
C2123       C  0.38230719  0.54855646  0.11657563    -0.01900
C2124       C  0.37373879  0.53226738  0.09985699     0.07800
C2125       C  0.35007029  0.53514724  0.09296570    -0.02000
C2126       C  0.33832879  0.55640390  0.09691645    -0.02000
C2127       C  0.34959855  0.57488234  0.10843861     0.07900
C2128       C  0.37106237  0.57045637  0.11953108    -0.02200
Br2129     Br  0.38556115  0.59445626  0.13809313    -0.00800
Br2130     Br  0.40371758  0.53896213  0.14076860    -0.00900
Br2131     Br  0.30632705  0.56015577  0.08681132    -0.00800
Br2132     Br  0.33243913  0.50998519  0.07939419    -0.00800
C2133       C  0.59328285  0.53869701  0.06910687    -0.01900
C2134       C  0.57707212  0.53124044  0.08620760     0.07800
C2135       C  0.57485556  0.54426746  0.10714974    -0.02000
C2136       C  0.58740006  0.56526797  0.11020090    -0.02000
C2137       C  0.60300708  0.57295651  0.09273869     0.07900
C2138       C  0.60549977  0.55978331  0.07198483    -0.02200
Br2139     Br  0.62576011  0.57055712  0.04712135    -0.00800
Br2140     Br  0.60206893  0.51855808  0.04343925    -0.00900
Br2141     Br  0.58468358  0.58236223  0.13919182    -0.00800
Br2142     Br  0.55717417  0.53175242  0.13304375    -0.00800
C2143       C  0.57756849  0.42951002  0.11604728    -0.01900
C2144       C  0.58443241  0.44523153  0.09795630     0.07800
C2145       C  0.60733352  0.44211958  0.08870773    -0.02000
C2146       C  0.61994308  0.42137035  0.09295982    -0.02000
C2147       C  0.61028207  0.40332378  0.10669497     0.07900
C2148       C  0.58962666  0.40803643  0.11930071    -0.02200
Br2149     Br  0.57738668  0.38508641  0.14075336    -0.00800
Br2150     Br  0.55667943  0.43931106  0.14070634    -0.00900
Br2151     Br  0.65127314  0.41819745  0.08063835    -0.00800
Br2152     Br  0.62280184  0.46641061  0.07094851    -0.00800
C2153       C  0.49327960  0.50942047  0.08588258    -0.01900
C2154       C  0.50379928  0.48696410  0.08415194     0.07800
C2155       C  0.48886893  0.46750178  0.08086039    -0.02000
C2156       C  0.46436241  0.47026924  0.08148067    -0.02000
C2157       C  0.45402127  0.49285561  0.08120737     0.07900
C2158       C  0.46908659  0.51246606  0.08240658    -0.02200
Br2159     Br  0.45775357  0.54398840  0.07681084    -0.00800
Br2160     Br  0.51108421  0.53664466  0.09442426    -0.00900
Br2161     Br  0.44571684  0.44241783  0.08452018    -0.00800
Br2162     Br  0.50112875  0.43696825  0.07287210    -0.00800
C2163       C  0.57027881  0.55011272  0.88871004    -0.01900
C2164       C  0.57893181  0.53131129  0.90266992     0.07800
C2165       C  0.60309610  0.53194344  0.90873379    -0.02000
C2166       C  0.61620690  0.55248487  0.90569689    -0.02000
C2167       C  0.60634118  0.57217415  0.89470718     0.07900
C2168       C  0.58355775  0.57074720  0.88576611    -0.02200
Br2169     Br  0.57093067  0.59691890  0.86843876    -0.00800
Br2170     Br  0.54363638  0.54655009  0.86854708    -0.00900
Br2171     Br  0.64725994  0.55421908  0.91876094    -0.00800
Br2172     Br  0.61950744  0.50459835  0.92051862    -0.00800
C2173       C  0.58134973  0.44046735  0.88032902    -0.01900
C2174       C  0.56521644  0.44357727  0.89896608     0.07800
C2175       C  0.55752128  0.42289409  0.91017621    -0.02000
C2176       C  0.57168205  0.40263657  0.90972382    -0.02000
C2177       C  0.59207716  0.40219782  0.89584704     0.07900
C2178       C  0.59571800  0.42047174  0.87974870    -0.02200
Br2179     Br  0.61945001  0.41749188  0.85592591    -0.00800
Br2180     Br  0.57930220  0.45928040  0.85222916    -0.00900
Br2181     Br  0.56317924  0.37608804  0.92869615    -0.00800
Br2182     Br  0.52526334  0.41923806  0.91892616    -0.00800
C2183       C  0.55771840  0.46484649  0.98557290    -0.01900
C2184       C  0.55500943  0.48617056  0.97362352     0.07800
C2185       C  0.54878843  0.50626955  0.98671714    -0.02000
C2186       C  0.55013241  0.50617411  0.01138250    -0.02000
C2187       C  0.55335018  0.48459152  0.02375202     0.07900
C2188       C  0.55416517  0.46376484  0.00999527    -0.02200
Br2189     Br  0.54618887  0.43355132  0.02299522    -0.00800
Br2190     Br  0.56687828  0.43696845  0.96896629    -0.00900
Br2191     Br  0.54843475  0.53680525  0.02576218    -0.00800
Br2192     Br  0.53580836  0.53360456  0.97110301    -0.00800
C2193       C  0.35475205  0.42812580  0.92211759    -0.01900
C2194       C  0.37477856  0.43554064  0.90927007     0.07800
C2195       C  0.38066536  0.42218630  0.88888998    -0.02000
C2196       C  0.36998814  0.40028537  0.88457314    -0.02000
C2197       C  0.35224593  0.39212757  0.89939863     0.07900
C2198       C  0.34475801  0.40609197  0.91816256    -0.02200
Br2199     Br  0.32069067  0.39466917  0.93916273    -0.00800
Br2200     Br  0.33654610  0.44882137  0.94145629    -0.00900
Br2201     Br  0.37877314  0.38175935  0.85772054    -0.00800
Br2202     Br  0.40030204  0.43478925  0.86441729    -0.00800
C2203       C  0.35261280  0.52705047  0.90253525    -0.01900
C2204       C  0.37725432  0.52379387  0.90118981     0.07800
C2205       C  0.39118138  0.54358907  0.89582129    -0.02000
C2206       C  0.38118551  0.56619128  0.89448776    -0.02000
C2207       C  0.35696069  0.56919962  0.89678366     0.07900
C2208       C  0.34271425  0.54943742  0.89962020    -0.02200
Br2209     Br  0.30910591  0.55309403  0.89910528    -0.00800
Br2210     Br  0.33115528  0.50211905  0.90984230    -0.00900
Br2211     Br  0.40095549  0.59323772  0.89121450    -0.00800
Br2212     Br  0.42385193  0.54028788  0.88881599    -0.00800
C2213       C  0.41837750  0.50378637  0.98330378    -0.01900
C2214       C  0.39779165  0.49672821  0.97158999     0.07800
C2215       C  0.37706245  0.49630812  0.98478189    -0.02000
C2216       C  0.37756913  0.49674555  0.00937007    -0.02000
C2217       C  0.39879122  0.49981509  0.02137733     0.07900
C2218       C  0.41904112  0.50430965  0.00808783    -0.02200
Br2219     Br  0.44779198  0.51171085  0.02358358    -0.00800
Br2220     Br  0.44453618  0.51666029  0.96663134    -0.00900
Br2221     Br  0.34903932  0.49102664  0.02601009    -0.00800
Br2222     Br  0.34769095  0.49980785  0.96917960    -0.00800
C2223       C  0.46345858  0.47355837  0.93555586    -0.01900
C2224       C  0.45109835  0.48025394  0.91544274     0.07800
C2225       C  0.46363833  0.48676296  0.89529231    -0.02000
C2226       C  0.48805342  0.48978208  0.89642803    -0.02000
C2227       C  0.49993078  0.48755483  0.91810652     0.07900
C2228       C  0.48721942  0.47899063  0.93766302    -0.02200
Br2229     Br  0.50050395  0.47626032  0.96836683    -0.00800
Br2230     Br  0.44813444  0.45553066  0.95979680    -0.00900
Br2231     Br  0.50519775  0.49446853  0.86772591    -0.00800
Br2232     Br  0.44770576  0.48862146  0.86565006    -0.00800
C2233       C  0.09294494  0.40989082  0.45124344    -0.01900
C2234       C  0.08393026  0.39657932  0.47017233     0.07800
C2235       C  0.08152317  0.37196335  0.46699199    -0.02000
C2236       C  0.08624211  0.36153435  0.44510177    -0.02000
C2237       C  0.09408293  0.37506447  0.42608480     0.07900
C2238       C  0.09766451  0.39923188  0.42929333    -0.02200
Br2239     Br  0.10962623  0.41755419  0.40364162    -0.00800
Br2240     Br  0.10078898  0.44238021  0.45564889    -0.00900
Br2241     Br  0.07996043  0.32856086  0.44052145    -0.00800
Br2242     Br  0.07097937  0.35144090  0.49166784    -0.00800
C2243       C  0.09541391  0.39937888  0.57106943    -0.01900
C2244       C  0.07460056  0.39677545  0.55770157     0.07800
C2245       C  0.06032054  0.37691389  0.56335903    -0.02000
C2246       C  0.06367659  0.36440771  0.58425245    -0.02000
C2247       C  0.08347798  0.36816197  0.59799700     0.07900
C2248       C  0.09964152  0.38525212  0.59111475    -0.02200
Br2249     Br  0.12839227  0.38788491  0.60834404    -0.00800
Br2250     Br  0.12030244  0.41917468  0.56051000    -0.00900
Br2251     Br  0.04044007  0.34204834  0.59440359    -0.00800
Br2252     Br  0.03859248  0.36244743  0.54172848    -0.00800
C2253       C  0.10647903  0.59217881  0.43772382    -0.01900
C2254       C  0.09161326  0.60141333  0.45546203     0.07800
C2255       C  0.08349510  0.62484547  0.45221160    -0.02000
C2256       C  0.08498836  0.63567266  0.43014740    -0.02000
C2257       C  0.09488229  0.62373428  0.41104670     0.07900
C2258       C  0.10702071  0.60267296  0.41521267    -0.02200
Br2259     Br  0.12384488  0.58779341  0.39002059    -0.00800
Br2260     Br  0.13032001  0.56944308  0.44483516    -0.00900
Br2261     Br  0.07399462  0.66749419  0.42615885    -0.00800
Br2262     Br  0.07075911  0.64332431  0.47764530    -0.00800
C2263       C  0.10552228  0.61226159  0.57576261    -0.01900
C2264       C  0.08606952  0.62228072  0.58708943     0.07800
C2265       C  0.06384449  0.61988851  0.57692993    -0.02000
C2266       C  0.06117703  0.60870517  0.55512083    -0.02000
C2267       C  0.08065583  0.59907197  0.54327263     0.07900
C2268       C  0.10293633  0.60109965  0.55379819    -0.02200
Br2269     Br  0.13036006  0.58950274  0.53797382    -0.00800
Br2270     Br  0.13594564  0.61472404  0.58983262    -0.00900
Br2271     Br  0.03083843  0.60929130  0.54092093    -0.00800
Br2272     Br  0.03657826  0.63142380  0.59334222    -0.00800
C2273       C  0.09074396  0.51259113  0.51676446    -0.01900
C2274       C  0.07602527  0.52445817  0.50116008     0.07800
C2275       C  0.06115705  0.51124699  0.48682306    -0.02000
C2276       C  0.05833454  0.48690595  0.49056061    -0.02000
C2277       C  0.07343885  0.47431022  0.50626079     0.07900
C2278       C  0.09088093  0.48782852  0.51782334    -0.02200
Br2279     Br  0.11763439  0.47345161  0.53230342    -0.00800
Br2280     Br  0.11154035  0.53043723  0.53614680    -0.00900
Br2281     Br  0.03192441  0.47351405  0.47463650    -0.00800
Br2282     Br  0.04398398  0.52687664  0.46207543    -0.00800
C2283       C  0.90098201  0.62499870  0.45816687    -0.01900
C2284       C  0.89731732  0.60083915  0.46249570     0.07800
C2285       C  0.88686110  0.58721780  0.44466710    -0.02000
C2286       C  0.88103384  0.59738442  0.42279492    -0.02000
C2287       C  0.88498490  0.62136406  0.41869629     0.07900
C2288       C  0.89489496  0.63508420  0.43651860    -0.02200
Br2289     Br  0.90210489  0.66766651  0.43059775    -0.00800
Br2290     Br  0.91575198  0.64483343  0.48085886    -0.00900
Br2291     Br  0.86705087  0.57865428  0.39856045    -0.00800
Br2292     Br  0.87911286  0.55493447  0.45036120    -0.00800
C2293       C  0.88319581  0.59374807  0.56583137    -0.01900
C2294       C  0.90219032  0.60029336  0.55103816     0.07800
C2295       C  0.91385472  0.62173267  0.55690794    -0.02000
C2296       C  0.90925828  0.63341670  0.57817111    -0.02000
C2297       C  0.89206979  0.62518112  0.59356753     0.07900
C2298       C  0.87899278  0.60545923  0.58732880    -0.02200
Br2299     Br  0.85418886  0.59548555  0.60790283    -0.00800
Br2300     Br  0.85946446  0.57247328  0.55565577    -0.00900
Br2301     Br  0.92757717  0.66053535  0.58692304    -0.00800
Br2302     Br  0.93519326  0.63760730  0.53599048    -0.00800
C2303       C  0.97888368  0.59030739  0.48283152    -0.01900
C2304       C  0.96751589  0.57489808  0.49797666     0.07800
C2305       C  0.98093393  0.55933322  0.51157684    -0.02000
C2306       C  0.00541479  0.55842996  0.50901435    -0.02000
C2307       C  0.01738172  0.57618927  0.49610327     0.07900
C2308       C  0.00318045  0.59304186  0.48417531    -0.02200
Br2309     Br  0.01457401  0.62301718  0.47373890    -0.00800
Br2310     Br  0.96117742  0.60820153  0.46045049    -0.00900
Br2311     Br  0.02050741  0.53155434  0.52265586    -0.00800
Br2312     Br  0.96547890  0.53865361  0.53353126    -0.00800
C2313       C  0.89554753  0.40469114  0.42744353    -0.01900
C2314       C  0.89574894  0.39535060  0.45072639     0.07800
C2315       C  0.89480691  0.37030920  0.45263848    -0.02000
C2316       C  0.88893321  0.35628773  0.43324774    -0.02000
C2317       C  0.88789180  0.36586453  0.41062518     0.07900
C2318       C  0.89127664  0.39011827  0.40780179    -0.02200
Br2319     Br  0.89254016  0.40313837  0.37650693    -0.00800
Br2320     Br  0.90568999  0.43618064  0.42066312    -0.00900
Br2321     Br  0.88255667  0.32332137  0.43778331    -0.00800
Br2322     Br  0.90688959  0.35310568  0.47933720    -0.00800
C2323       C  0.86901085  0.38515766  0.56757508    -0.01900
C2324       C  0.88742470  0.37777130  0.58208465     0.07800
C2325       C  0.91031122  0.38460338  0.57649349    -0.02000
C2326       C  0.91514668  0.39652443  0.55538620    -0.02000
C2327       C  0.89689813  0.40293759  0.53989690     0.07900
C2328       C  0.87363306  0.39799238  0.54684493    -0.02200
Br2329     Br  0.84771587  0.40887030  0.52826680    -0.00800
Br2330     Br  0.83753709  0.37645760  0.57541920    -0.00900
Br2331     Br  0.94729352  0.40166291  0.54762830    -0.00800
Br2332     Br  0.93524740  0.37786299  0.59828217    -0.00800
C2333       C  0.97783286  0.40430839  0.49041426    -0.01900
C2334       C  0.96378445  0.42350612  0.49790570     0.07800
C2335       C  0.97533018  0.44249677  0.50917702    -0.02000
C2336       C  0.99970097  0.44170926  0.51263762    -0.02000
C2337       C  0.01334050  0.42417626  0.50187061     0.07900
C2338       C  0.00219823  0.40596953  0.49006468    -0.02200
Br2339     Br  0.02036879  0.38214041  0.47469998    -0.00800
Br2340     Br  0.96501673  0.37345862  0.48556178    -0.00900
Br2341     Br  0.01440194  0.46407561  0.53329402    -0.00800
Br2342     Br  0.95942146  0.46986624  0.52077416    -0.00800
C2343       C  0.92130431  0.48731146  0.48152673    -0.01900
C2344       C  0.90351999  0.47487173  0.49304053     0.07800
C2345       C  0.88581000  0.48761919  0.50429096    -0.02000
C2346       C  0.88673977  0.51236002  0.50531197    -0.02000
C2347       C  0.90690160  0.52474061  0.49779869     0.07900
C2348       C  0.92403630  0.51163759  0.48511819    -0.02200
Br2349     Br  0.95247877  0.52486901  0.47309668    -0.00800
Br2350     Br  0.94209011  0.47095216  0.46036299    -0.00900
Br2351     Br  0.85869345  0.52889733  0.51371729    -0.00800
Br2352     Br  0.85965146  0.47112317  0.51733600    -0.00800
loop_ 
_geom_bond_atom_site_label_1 
_geom_bond_atom_site_label_2 
_geom_bond_distance 
_geom_bond_site_symmetry_2 
_ccdc_geom_bond_type 
C1            C2   1.547       .  S
C1            C7   1.541       .  S
C1            C5   1.531       .  S
C1         C2314   1.565       .  S
C2            H9   1.083       .  S
C2            C3   1.373       .  D
C3            C4   1.558       .  S
C3         C2344   1.502       .  S
C4            C8   1.550       .  S
C4            C6   1.554       .  S
C4           H10   1.102       .  S
C5           H11   1.085       .  S
C5            C6   1.368       .  D
C6         C2334   1.521       .  S
C7           H12   1.083       .  S
C7            C8   1.364       .  D
C8         C2327   1.514       .  S
C13          C14   1.560       .  S
C13          C19   1.535       .  S
C13          C17   1.533       .  S
C13        C2294   1.568       .  S
C14          H21   1.082       .  S
C14          C15   1.389       .  D
C15          C16   1.556       .  S
C15        C2347   1.531       .  S
C16          C20   1.547       .  S
C16          C18   1.547       .  S
C16          H22   1.104       .  S
C17          H23   1.086       .  S
C17          C18   1.357       .  D
C18        C2304   1.491       .  S
C19          H24   1.086       .  S
C19          C20   1.364       .  D
C20        C2284   1.509       .  S
C25          C26   1.545       .  S
C25          C31   1.535       .  S
C25          C29   1.542       .  S
C25        C2254   1.557       .  S
C26          H33   1.078       .  S
C26          C27   1.372       .  D
C27          C28   1.557       .  S
C27        C2274   1.503       .  S
C28          C32   1.547       .  S
C28          C30   1.559       .  S
C28          H34   1.101       .  S
C29          H35   1.083       .  S
C29          C30   1.371       .  D
C30        C2307   1.532       .  S
C31          H36   1.086       .  S
C31          C32   1.359       .  D
C32        C2267   1.506       .  S
C37          C38   1.556       .  S
C37          C43   1.530       .  S
C37          C41   1.529       .  S
C37        C2244   1.562       .  S
C38          H45   1.082       .  S
C38          C39   1.397       .  D
C39          C40   1.567       .  S
C39        C2277   1.544       .  S
C40          C44   1.551       .  S
C40          C42   1.544       .  S
C40          H46   1.098       .  S
C41          H47   1.086       .  S
C41          C42   1.351       .  D
C42        C2337   1.486       .  S
C43          H48   1.085       .  S
C43          C44   1.359       .  D
C44        C2234   1.517       .  S
C49          C50   1.534       .  S
C49          C55   1.534       .  S
C49          C53   1.557       .  S
C49        C2194   1.560       .  S
C50          H57   1.086       .  S
C50          C51   1.363       .  D
C51          C52   1.560       .  S
C51        C2224   1.489       .  S
C52          C56   1.550       .  S
C52          C54   1.535       .  S
C52          H58   1.101       .  S
C53          H59   1.084       .  S
C53          C54   1.375       .  D
C54        C2214   1.515       .  S
C55          H60   1.084       .  S
C55          C56   1.368       .  D
C56        C2204   1.515       .  S
C61          C62   1.561       .  S
C61          C67   1.527       .  S
C61          C65   1.527       .  S
C61        C2164   1.559       .  S
C62          H69   1.078       .  S
C62          C63   1.377       .  D
C63          C64   1.535       .  S
C63        C2227   1.508       .  S
C64          C68   1.561       .  S
C64          C66   1.552       .  S
C64          H70   1.093       .  S
C65          H71   1.087       .  S
C65          C66   1.356       .  D
C66        C2184   1.501       .  S
C67          H72   1.076       .  S
C67          C68   1.373       .  D
C68        C2174   1.526       .  S
C73          C74   1.556       .  S
C73          C79   1.521       .  S
C73          C77   1.550       .  S
C73        C2144   1.560       .  S
C74          H81   1.076       .  S
C74          C75   1.377       .  D
C75          C76   1.541       .  S
C75        C2154   1.521       .  S
C76          C80   1.560       .  S
C76          C78   1.543       .  S
C76          H82   1.088       .  S
C77          H83   1.083       .  S
C77          C78   1.375       .  D
C78        C2187   1.527       .  S
C79          H84   1.087       .  S
C79          C80   1.356       .  D
C80        C2134   1.493       .  S
C85          C86   1.550       .  S
C85          C91   1.529       .  S
C85          C89   1.543       .  S
C85        C2124   1.560       .  S
C86          H93   1.072       .  S
C86          C87   1.375       .  D
C87          C88   1.550       .  S
C87        C2157   1.519       .  S
C88          C92   1.555       .  S
C88          C90   1.545       .  S
C88          H94   1.107       .  S
C89          H95   1.087       .  S
C89          C90   1.364       .  D
C90        C2217   1.500       .  S
C91          H96   1.086       .  S
C91          C92   1.367       .  D
C92        C2117   1.505       .  S
C97          C98   1.550       .  S
C97         C103   1.531       .  S
C97         C101   1.545       .  S
C97        C2084   1.561       .  S
C98         H105   1.082       .  S
C98          C99   1.366       .  D
C99         C100   1.545       .  S
C99        C2104   1.506       .  S
C100        C104   1.558       .  S
C100        C102   1.558       .  S
C100        H106   1.104       .  S
C101        H107   1.081       .  S
C101        C102   1.373       .  D
C102       C2094   1.527       .  S
C103        H108   1.086       .  S
C103        C104   1.367       .  D
C104       C2074   1.503       .  S
C109        C110   1.562       .  S
C109        C115   1.543       .  S
C109        C113   1.535       .  S
C109       C2044   1.572       .  S
C110        H117   1.077       .  S
C110        C111   1.388       .  D
C111        C112   1.554       .  S
C111       C2107   1.531       .  S
C112        C116   1.542       .  S
C112        C114   1.542       .  S
C112        H118   1.095       .  S
C113        H119   1.087       .  S
C113        C114   1.354       .  D
C114       C2064   1.483       .  S
C115        H120   1.085       .  S
C115        C116   1.365       .  D
C116       C2054   1.517       .  S
C121        C122   1.558       .  S
C121        C127   1.538       .  S
C121        C125   1.539       .  S
C121       C2027   1.569       .  S
C122        H129   1.081       .  S
C122        C123   1.395       .  D
C123        C124   1.563       .  S
C123       C2034   1.543       .  S
C124        C128   1.542       .  S
C124        C126   1.536       .  S
C124        H130   1.087       .  S
C125        H131   1.086       .  S
C125        C126   1.353       .  D
C126       C2067   1.487       .  S
C127        H132   1.084       .  S
C127        C128   1.362       .  D
C128       C2017   1.514       .  S
C133        C134   1.554       .  S
C133        C139   1.520       .  S
C133        C137   1.528       .  S
C133       C1994   1.548       .  S
C134        H141   1.081       .  S
C134        C135   1.369       .  D
C135        C136   1.541       .  S
C135       C2037   1.502       .  S
C136        C140   1.575       .  S
C136        C138   1.567       .  S
C136        H142   1.097       .  S
C137        H143   1.084       .  S
C137        C138   1.356       .  D
C138       C2097   1.516       .  S
C139        H144   1.079       .  S
C139        C140   1.373       .  D
C140       C2004   1.532       .  S
C145        C146   1.557       .  S
C145        C151   1.531   1_556  S
C145        C149   1.539       .  S
C145       C1954   1.560       .  S
C146        H153   1.081       .  S
C146        C147   1.376       .  D
C147        C148   1.544   1_556  S
C147       C1974   1.517   1_556  S
C148        C152   1.546       .  S
C148        C150   1.552   1_554  S
C148        H154   1.103       .  S
C149        H155   1.086       .  S
C149        C150   1.369       .  D
C150       C1984   1.510   1_556  S
C151        H156   1.086       .  S
C151        C152   1.362       .  D
C152       C1964   1.489       .  S
C157        C158   1.557       .  S
C157        C163   1.525       .  S
C157        C161   1.544       .  S
C157       C1934   1.559       .  S
C158        H165   1.074       .  S
C158        C159   1.377       .  D
C159        C160   1.544   1_554  S
C159       C1947   1.523       .  S
C160        C164   1.563       .  S
C160        C162   1.540   1_556  S
C160        H166   1.092       .  S
C161        H167   1.085       .  S
C161        C162   1.368       .  D
C162       C1987   1.518       .  S
C163        H168   1.087   1_554  S
C163        C164   1.360   1_554  D
C164       C1924   1.495       .  S
C169        C170   1.524       .  S
C169        C175   1.543       .  S
C169        C173   1.552       .  S
C169       C1904   1.551       .  S
C170        H177   1.086       .  S
C170        C171   1.361       .  D
C171        C172   1.563   1_554  S
C171       C1977   1.491       .  S
C172        C176   1.544       .  S
C172        C174   1.542   1_556  S
C172        H178   1.097       .  S
C173        H179   1.083       .  S
C173        C174   1.374       .  D
C174       C1917   1.522   1_554  S
C175        H180   1.079       .  S
C175        C176   1.366   1_554  D
C176       C1894   1.510       .  S
C181        C182   1.540       .  S
C181        C187   1.552       .  S
C181        C185   1.533       .  S
C181       C1877   1.562       .  S
C182        H189   1.084       .  S
C182        C183   1.373       .  D
C183        C184   1.553   1_556  S
C183       C1944   1.523       .  S
C184        C188   1.555       .  S
C184        C186   1.540   1_554  S
C184        H190   1.104       .  S
C185        H191   1.087       .  S
C185        C186   1.353       .  D
C186       C1914   1.484       .  S
C187        H192   1.081       .  S
C187        C188   1.380   1_556  D
C188       C1884   1.519       .  S
C193        C194   1.540       .  S
C193        C199   1.547       .  S
C193        C197   1.536       .  S
C193       C1837   1.557       .  S
C194        H201   1.084       .  S
C194        C195   1.375       .  D
C195        C196   1.556       .  S
C195       C1854   1.525       .  S
C196        C200   1.550   1_565  S
C196        C198   1.544       .  S
C196        H202   1.107   1_565  S
C197        H203   1.086       .  S
C197        C198   1.354       .  D
C198       C1864   1.490       .  S
C199        H204   1.081       .  S
C199        C200   1.374   1_565  D
C200       C1847   1.507       .  S
C205        C206   1.555       .  S
C205        C211   1.540   1_545  S
C205        C209   1.529       .  S
C205       C1814   1.561       .  S
C206        H213   1.082       .  S
C206        C207   1.384       .  D
C207        C208   1.554   1_545  S
C207       C1824   1.531   1_545  S
C208        C212   1.549       .  S
C208        C210   1.540   1_565  S
C208        H214   1.105       .  S
C209        H215   1.087       .  S
C209        C210   1.354       .  D
C210       C1867   1.489   1_545  S
C211        H216   1.080       .  S
C211        C212   1.369       .  D
C212       C1804   1.505       .  S
C217        C218   1.550       .  S
C217        C223   1.535   1_545  S
C217        C221   1.546       .  S
C217       C1784   1.559       .  S
C218        H225   1.074       .  S
C218        C219   1.369       .  D
C219        C220   1.552   1_545  S
C219       C1857   1.516   1_545  S
C220        C224   1.552       .  S
C220        C222   1.549   1_565  S
C220        H226   1.108       .  S
C221        H227   1.086       .  S
C221        C222   1.368       .  D
C222       C1794   1.510   1_545  S
C223        H228   1.085       .  S
C223        C224   1.367       .  D
C224       C1774   1.511       .  S
C229        C230   1.550       .  S
C229        C235   1.531   1_565  S
C229        C233   1.546       .  S
C229       C1754   1.558       .  S
C230        H237   1.074       .  S
C230        C231   1.372       .  D
C231        C232   1.551   1_565  S
C231       C1827   1.517       .  S
C232        C236   1.552       .  S
C232        C234   1.546   1_545  S
C232        H238   1.107       .  S
C233        H239   1.086       .  S
C233        C234   1.366       .  D
C234       C1797   1.503       .  S
C235        H240   1.086       .  S
C235        C236   1.368       .  D
C236       C1767   1.506       .  S
C241        C242   1.548       .  S
C241        C247   1.541   1_455  S
C241        C245   1.541       .  S
C241       C1724   1.567       .  S
C242        H249   1.084       .  S
C242        C243   1.368   1_455  D
C243        C244   1.547       .  S
C243       C1734   1.507       .  S
C244        C248   1.551       .  S
C244        C246   1.549       .  S
C244        H250   1.107       .  S
C245        H251   1.085       .  S
C245        C246   1.370   1_455  D
C246       C1744   1.519       .  S
C247        H252   1.081       .  S
C247        C248   1.367       .  D
C248       C1714   1.497       .  S
C253        C254   1.540       .  S
C253        C259   1.543       .  S
C253        C257   1.547       .  S
C253       C1684   1.561       .  S
C254        H261   1.086       .  S
C254        C255   1.365       .  D
C255        C256   1.548       .  S
C255       C1704   1.506       .  S
C256        C260   1.551       .  S
C256        C258   1.554       .  S
C256        H262   1.107   1_655  S
C257        H263   1.085       .  S
C257        C258   1.371       .  D
C258       C1747   1.525       .  S
C259        H264   1.077       .  S
C259        C260   1.369       .  D
C260       C1694   1.503   1_655  S
C265        C266   1.547       .  S
C265        C271   1.544   1_455  S
C265        C269   1.544       .  S
C265       C1664   1.573       .  S
C266        H273   1.085       .  S
C266        C267   1.369   1_455  D
C267        C268   1.549       .  S
C267       C1707   1.508       .  S
C268        C272   1.550       .  S
C268        C270   1.549       .  S
C268        H274   1.107       .  S
C269        H275   1.085       .  S
C269        C270   1.370   1_455  D
C270       C1674   1.523       .  S
C271        H276   1.078       .  S
C271        C272   1.367       .  D
C272       C1654   1.502       .  S
C277        C278   1.533       .  S
C277        C283   1.542       .  S
C277        C281   1.548       .  S
C277       C1634   1.553       .  S
C278        H285   1.086       .  S
C278        C279   1.362       .  D
C279        C280   1.551       .  S
C279       C1737   1.504       .  S
C280        C284   1.553       .  S
C280        C282   1.557       .  S
C280        H286   1.107   1_655  S
C281        H287   1.084       .  S
C281        C282   1.373       .  D
C282       C1677   1.528       .  S
C283        H288   1.079       .  S
C283        C284   1.368       .  D
C284       C1647   1.504   1_655  S
O289        C292   1.269       .  A
O289       Cd294   2.522       .  S
C290        O299   1.262       .  A
C290        O295   1.268       .  A
C290       C1614   1.486       .  S
O291        C297   1.264       .  A
O291       Cd294   2.472       .  S
C292        O300   1.264       .  A
C292       C1667   1.486       .  S
C293        O298   1.264       .  A
C293        O296   1.266       .  A
C293       C1607   1.485       .  S
Cd294       O301   2.445       .  S
Cd294       O300   2.441       .  S
Cd294       O299   2.444       .  S
Cd294       O295   2.519       .  S
Cd294       O298   2.488       .  S
Cd294       O296   2.496       .  S
C297        O301   1.263       .  A
C297       C1624   1.472       .  S
O302        C305   1.264       .  A
O302       Cd307   2.457       .  S
C303        O312   1.265       .  A
C303        O308   1.265       .  A
C303       C1627   1.468       .  S
O304        C310   1.265       .  A
O304       Cd307   2.524       .  S
C305        O313   1.267       .  A
C305       C1587   1.481       .  S
C306        O311   1.268       .  A
C306        O309   1.261       .  A
C306       C1597   1.491       .  S
Cd307       O314   2.483       .  S
Cd307       O313   2.484       .  S
Cd307       O312   2.458       .  S
Cd307       O308   2.451       .  S
Cd307       O311   2.521       .  S
Cd307       O309   2.464       .  S
C310        O314   1.264       .  A
C310       C1644   1.492       .  S
O315        C318   1.266       .  A
O315       Cd320   2.447       .  S
C316        O325   1.265       .  A
C316        O321   1.265       .  A
C316       C1574   1.480       .  S
O317        C323   1.268       .  A
O317       Cd320   2.526       .  S
C318        O326   1.268       .  A
C318       C1564   1.481       .  S
C319        O324   1.265       .  A
C319        O322   1.263       .  A
C319       C1554   1.485       .  S
Cd320       O327   2.430       .  S
Cd320       O326   2.475       .  S
Cd320       O325   2.459       .  S
Cd320       O321   2.464       .  S
Cd320       O324   2.485       .  S
Cd320       O322   2.487       .  S
C323        O327   1.261       .  A
C323       C2207   1.485       .  S
O328        C331   1.266       .  A
O328       Cd333   2.494       .  S
C329        O338   1.262       .  A
C329        O334   1.270       .  A
C329       C2127   1.485       .  S
O330        C336   1.262       .  A
O330       Cd333   2.461       .  S
C331        O339   1.261       .  A
C331       C1544   1.476       .  S
C332        O337   1.265       .  A
C332        O335   1.266       .  A
C332       C1577   1.474       .  S
Cd333       O340   2.502       .  S
Cd333       O339   2.460       .  S
Cd333       O338   2.421       .  S
Cd333       O334   2.537       .  S
Cd333       O337   2.450       .  S
Cd333       O335   2.459       .  S
C336        O340   1.267       .  A
C336       C1594   1.489       .  S
O341        C344   1.265       .  A
O341       Cd346   2.469       .  S
C342        O351   1.264       .  A
C342        O347   1.266       .  A
C342       C1727   1.488       .  S
O343        C349   1.264       .  A
O343       Cd346   2.469       .  S
C344        O352   1.265       .  A
C344       C1567   1.477       .  S
C345        O350   1.266       .  A
C345        O348   1.264       .  A
C345       C1534   1.478       .  S
Cd346       O353   2.488       .  S
Cd346       O352   2.468       .  S
Cd346       O351   2.454       .  S
Cd346       O347   2.506       .  S
Cd346       O350   2.477       .  S
Cd346       O348   2.454       .  S
C349        O353   1.266       .  A
C349       C1524   1.488       .  S
O354        C357   1.262       .  A
O354       Cd359   2.454       .  S
C355        O364   1.268       .  A
C355        O360   1.266       .  A
C355       C1504   1.479       .  S
O356        C362   1.268       .  A
O356       Cd359   2.502       .  S
C357        O365   1.263       .  A
C357       C1537   1.475       .  S
C358        O363   1.264       .  A
C358        O361   1.266       .  A
C358       C1697   1.492       .  S
Cd359       O366   2.473       .  S
Cd359       O365   2.477       .  S
Cd359       O364   2.481       .  S
Cd359       O360   2.459       .  S
Cd359       O363   2.508       .  S
Cd359       O361   2.496       .  S
C362        O366   1.262       .  A
C362       C1514   1.487       .  S
O367        C370   1.265       .  A
O367       Cd372   2.510       .  S
C368        O377   1.260       .  A
C368        O373   1.268       .  A
C368       C1484   1.478       .  S
O369        C375   1.265       .  A
O369       Cd372   2.449       .  S
C370        O378   1.264       .  A
C370       C2197   1.481       .  S
C371        O376   1.264       .  A
C371        O374   1.268       .  A
C371       C1517   1.484       .  S
Cd372       O379   2.441       .  S
Cd372       O378   2.448       .  S
Cd372       O377   2.421       .  S
Cd372       O373   2.501       .  S
Cd372       O376   2.451       .  S
Cd372       O374   2.500       .  S
C375        O379   1.264       .  A
C375       C1494   1.471       .  S
O380        C383   1.261       .  A
O380       Cd385   2.465       .  S
C381        O390   1.266       .  A
C381        O386   1.264       .  A
C381       C1497   1.476       .  S
O382        C388   1.264       .  A
O382       Cd385   2.477       .  S
C383        O391   1.266       .  A
C383       C1617   1.486       .  S
C384        O389   1.266       .  A
C384        O387   1.262       .  A
C384       C1477   1.475       .  S
Cd385       O392   2.510       .  S
Cd385       O391   2.494       .  S
Cd385       O390   2.446       .  S
Cd385       O386   2.442       .  S
Cd385       O389   2.498       .  S
Cd385       O387   2.440       .  S
C388        O392   1.266       .  A
C388       C2114   1.486       .  S
O393        C396   1.265       .  A
O393       Cd398   2.475       .  S
C394        O403   1.262       .  A
C394        O399   1.267       .  A
C394       C1457   1.467       .  S
O395        C401   1.264       .  A
O395       Cd398   2.449       .  S
C396        O404   1.264       .  A
C396       C1907   1.481       .  S
C397        O402   1.263       .  A
C397        O400   1.267       .  A
C397       C1474   1.480       .  S
Cd398       O405   2.449       .  S
Cd398       O404   2.483       .  S
Cd398       O403   2.431       .  S
Cd398       O399   2.481       .  S
Cd398       O402   2.443       .  S
Cd398       O400   2.471       .  S
C401        O405   1.263       .  A
C401       C1464   1.470       .  S
O406        C409   1.263       .  A
O406       Cd411   2.458       .  S
C407        O416   1.265       .  A
C407        O412   1.264       .  A
C407       C1467   1.473       .  S
O408        C414   1.264       .  A
O408       Cd411   2.519       .  S
C409        O417   1.269       .  A
C409       C1434   1.490       .  S
C410        O415   1.260       .  A
C410        O413   1.268       .  A
C410       C1444   1.492       .  S
Cd411       O418   2.519       .  S
Cd411       O417   2.514       .  S
Cd411       O416   2.452       .  S
Cd411       O412   2.445       .  S
Cd411       O415   2.458       .  S
Cd411       O413   2.537       .  S
C414        O418   1.265       .  A
C414       C1887   1.497       .  S
O419        C422   1.263       .  A
O419       Cd424   2.449       .  S
C420        O429   1.265       .  A
C420        O425   1.265       .  A
C420       C1424   1.476       .  S
O421        C427   1.271       .  A
O421       Cd424   2.516       .  S
C422        O430   1.267       .  A
C422       C1414   1.485       .  S
C423        O428   1.267       .  A
C423        O426   1.261       .  A
C423       C1404   1.488       .  S
Cd424       O431   2.438       .  S
Cd424       O430   2.503       .  S
Cd424       O429   2.437       .  S
Cd424       O425   2.444       .  S
Cd424       O428   2.509       .  S
Cd424       O426   2.457       .  S
C427        O431   1.263       .  A
C427       C2057   1.489       .  S
O432        C435   1.267       .  A
O432       Cd437   2.493       .  S
C433        O442   1.265       .  A
C433        O438   1.263       .  A
C433       C2024   1.483       .  S
O434        C440   1.263       .  A
O434       Cd437   2.465       .  S
C435        O443   1.261       .  A
C435       C1394   1.473       .  S
C436        O441   1.265       .  A
C436        O439   1.263       .  A
C436       C1427   1.475       .  S
Cd437       O444   2.514       .  S
Cd437       O443   2.438       .  S
Cd437       O442   2.458       .  S
Cd437       O438   2.516       .  S
Cd437       O441   2.463       .  S
Cd437       O439   2.442       .  S
C440        O444   1.269       .  A
C440       C1447   1.493       .  S
O445        C448   1.267       .  A
O445       Cd450   2.480       .  S
C446        O455   1.267       .  A
C446        O451   1.263       .  A
C446       C1937   1.493       .  S
O447        C453   1.264       .  A
O447       Cd450   2.478       .  S
C448        O456   1.263       .  A
C448       C1417   1.484       .  S
C449        O454   1.267       .  A
C449        O452   1.265       .  A
C449       C1384   1.483       .  S
Cd450       O457   2.466       .  S
Cd450       O456   2.473       .  S
Cd450       O455   2.528       .  S
Cd450       O451   2.458       .  S
Cd450       O454   2.468       .  S
Cd450       O452   2.453       .  S
C453        O457   1.264       .  A
C453       C1377   1.475       .  S
O458        C461   1.262       .  A
O458       Cd463   2.461       .  S
C459        O468   1.268       .  A
C459        O464   1.263       .  A
C459       C1547   1.478       .  S
O460        C466   1.267       .  A
O460       Cd463   2.491       .  S
C461        O469   1.264       .  A
C461       C1387   1.477       .  S
C462        O467   1.264       .  A
C462        O465   1.263       .  A
C462       C1967   1.477       .  S
Cd463       O470   2.447       .  S
Cd463       O469   2.468       .  S
Cd463       O468   2.490       .  S
Cd463       O464   2.444       .  S
Cd463       O467   2.506       .  S
Cd463       O465   2.451       .  S
C466        O470   1.264       .  A
C466       C1364   1.478       .  S
O471        C474   1.262       .  A
O471       Cd476   2.489       .  S
C472        O481   1.261       .  A
C472        O477   1.266       .  A
C472       C1347   1.472       .  S
O473        C479   1.265       .  A
O473       Cd476   2.452       .  S
C474        O482   1.265       .  A
C474       C2047   1.481       .  S
C475        O480   1.265       .  A
C475        O478   1.268       .  A
C475       C1367   1.483       .  S
Cd476       O483   2.437       .  S
Cd476       O482   2.471       .  S
Cd476       O481   2.438       .  S
Cd476       O477   2.491       .  S
Cd476       O480   2.468       .  S
Cd476       O478   2.466       .  S
C479        O483   1.264       .  A
C479       C1354   1.467       .  S
O484        C487   1.260       .  A
O484       Cd489   2.440       .  S
C485        O494   1.268       .  A
C485        O490   1.264       .  A
C485       C1357   1.472       .  S
O486        C492   1.268       .  A
O486       Cd489   2.519       .  S
C487        O495   1.266       .  A
C487       C1454   1.477       .  S
C488        O493   1.267       .  A
C488        O491   1.262       .  A
C488       C1334   1.485       .  S
Cd489       O496   2.466       .  S
Cd489       O495   2.490       .  S
Cd489       O494   2.454       .  S
Cd489       O490   2.427       .  S
Cd489       O493   2.502       .  S
Cd489       O491   2.457       .  S
C492        O496   1.262       .  A
C492       C2014   1.493       .  S
O497        C500   1.262       .  A
O497       Cd502   2.431       .  S
C498        O507   1.263       .  A
C498        O503   1.264       .  A
C498       C1314   1.485       .  S
O499        C505   1.265       .  A
O499       Cd502   2.449       .  S
C500        O508   1.269       .  A
C500       C1787   1.484       .  S
C501        O506   1.264       .  A
C501        O504   1.267       .  A
C501       C1337   1.492       .  S
Cd502       O509   2.463       .  S
Cd502       O508   2.514       .  S
Cd502       O507   2.491       .  S
Cd502       O503   2.495       .  S
Cd502       O506   2.469       .  S
Cd502       O504   2.494       .  S
C505        O509   1.265       .  A
C505       C1324   1.474       .  S
O510        C513   1.263       .  A
O510       Cd515   2.452       .  S
C511        O520   1.264       .  A
C511        O516   1.265       .  A
C511       C1327   1.473       .  S
O512        C518   1.267       .  A
O512       Cd515   2.496       .  S
C513        O521   1.266       .  A
C513       C1294   1.480       .  S
C514        O519   1.267       .  A
C514        O517   1.262       .  A
C514       C1304   1.479       .  S
Cd515       O522   2.442       .  S
Cd515       O521   2.472       .  S
Cd515       O520   2.445       .  S
Cd515       O516   2.455       .  S
Cd515       O519   2.499       .  S
Cd515       O517   2.439       .  S
C518        O522   1.263       .  A
C518       C1764   1.479       .  S
O523        C526   1.266       .  A
O523       Cd528   2.530       .  S
C524        O533   1.262       .  A
C524        O529   1.267       .  A
C524       C2324   1.492       .  S
O525        C531   1.266       .  A
O525       Cd528   2.463       .  S
C526        O534   1.262       .  A
C526       C1264   1.492       .  S
C527        O532   1.262       .  A
C527        O530   1.267       .  A
C527       C1274   1.486       .  S
Cd528       O535   2.447       .  S
Cd528       O534   2.476       .  S
Cd528       O533   2.468       .  S
Cd528       O529   2.546       .  S
Cd528       O532   2.450       .  S
Cd528       O530   2.509       .  S
C531        O535   1.267       .  A
C531       C1284   1.480       .  S
O536        C539   1.265       .  A
O536       Cd541   2.465       .  S
C537        O546   1.264       .  A
C537        O542   1.265       .  A
C537       C1507   1.484       .  S
O538        C544   1.264       .  A
O538       Cd541   2.492       .  S
C539        O547   1.264       .  A
C539       C2247   1.484       .  S
C540        O545   1.263       .  A
C540        O543   1.268       .  A
C540       C1307   1.482       .  S
Cd541       O548   2.468       .  S
Cd541       O547   2.508       .  S
Cd541       O546   2.466       .  S
Cd541       O542   2.502       .  S
Cd541       O545   2.454       .  S
Cd541       O543   2.503       .  S
C544        O548   1.265       .  A
C544       C1287   1.487       .  S
O549        C552   1.267       .  A
O549       Cd554   2.508       .  S
C550        O559   1.265       .  A
C550        O555   1.269       .  A
C550       C1817   1.487       .  S
O551        C557   1.262       .  A
O551       Cd554   2.451       .  S
C552        O560   1.261       .  A
C552       C1277   1.490       .  S
C553        O558   1.263       .  A
C553        O556   1.263       .  A
C553       C1254   1.476       .  S
Cd554       O561   2.501       .  S
Cd554       O560   2.458       .  S
Cd554       O559   2.446       .  S
Cd554       O555   2.510       .  S
Cd554       O558   2.455       .  S
Cd554       O556   2.450       .  S
C557        O561   1.268       .  A
C557       C1247   1.486       .  S
O562        C565   1.263       .  A
O562       Cd567   2.444       .  S
C563        O572   1.265       .  A
C563        O568   1.265       .  A
C563       C1257   1.477       .  S
O564        C570   1.264       .  A
O564       Cd567   2.480       .  S
C565        O573   1.267       .  A
C565       C1397   1.479       .  S
C566        O571   1.268       .  A
C566        O569   1.262       .  A
C566       C1234   1.485       .  S
Cd567       O574   2.495       .  S
Cd567       O573   2.486       .  S
Cd567       O572   2.452       .  S
Cd567       O568   2.446       .  S
Cd567       O571   2.503       .  S
Cd567       O569   2.448       .  S
C570        O574   1.265       .  A
C570       C1844   1.487       .  S
O575        C578   1.267       .  A
O575       Cd580   2.521       .  S
C576        O585   1.263       .  A
C576        O581   1.266       .  A
C576       C1214   1.487       .  S
O577        C583   1.265       .  A
O577       Cd580   2.472       .  S
C578        O586   1.264       .  A
C578       C2317   1.494       .  S
C579        O584   1.262       .  A
C579        O582   1.266       .  A
C579       C1237   1.485       .  S
Cd580       O587   2.466       .  S
Cd580       O586   2.459       .  S
Cd580       O585   2.460       .  S
Cd580       O581   2.510       .  S
Cd580       O584   2.469       .  S
Cd580       O582   2.505       .  S
C583        O587   1.266       .  A
C583       C1227   1.478       .  S
O588        C591   1.267       .  A
O588       Cd593   2.506       .  S
C589        O598   1.263       .  A
C589        O594   1.267       .  A
C589       C2237   1.492       .  S
O590        C596   1.264       .  A
O590       Cd593   2.463       .  S
C591        O599   1.262       .  A
C591       C1604   1.485       .  S
C592        O597   1.266       .  A
C592        O595   1.269       .  A
C592       C1317   1.487       .  S
Cd593       O600   2.471       .  S
Cd593       O599   2.468       .  S
Cd593       O598   2.511       .  S
Cd593       O594   2.508       .  S
Cd593       O597   2.460       .  S
Cd593       O595   2.501       .  S
C596        O600   1.263       .  A
C596       C1224   1.475       .  S
O601        C604   1.267       .  A
O601       Cd606   2.502       .  S
C602        O611   1.262       .  A
C602        O607   1.268       .  A
C602       C1874   1.479       .  S
O603        C609   1.262       .  A
O603       Cd606   2.465       .  S
C604        O612   1.264       .  A
C604       C1184   1.488       .  S
C605        O610   1.264       .  A
C605        O608   1.265       .  A
C605       C1204   1.475       .  S
Cd606       O613   2.498       .  S
Cd606       O612   2.476       .  S
Cd606       O611   2.458       .  S
Cd606       O607   2.510       .  S
Cd606       O610   2.461       .  S
Cd606       O608   2.466       .  S
C609        O613   1.266       .  A
C609       C1197   1.482       .  S
O614        C617   1.264       .  A
O614       Cd619   2.456       .  S
C615        O624   1.266       .  A
C615        O620   1.264       .  A
C615       C1487   1.481       .  S
O616        C622   1.267       .  A
O616       Cd619   2.487       .  S
C617        O625   1.266       .  A
C617       C1207   1.474       .  S
C618        O623   1.264       .  A
C618        O621   1.263       .  A
C618       C1897   1.481       .  S
Cd619       O626   2.455       .  S
Cd619       O625   2.457       .  S
Cd619       O624   2.470       .  S
Cd619       O620   2.449       .  S
Cd619       O623   2.467       .  S
Cd619       O621   2.483       .  S
C622        O626   1.264       .  A
C622       C1177   1.484       .  S
O627        C630   1.267       .  A
O627       Cd632   2.494       .  S
C628        O637   1.263       .  A
C628        O633   1.264       .  A
C628       C2087   1.484       .  S
O629        C635   1.266       .  A
O629       Cd632   2.451       .  S
C630        O638   1.263       .  A
C630       C1144   1.483       .  S
C631        O636   1.265       .  A
C631        O634   1.263       .  A
C631       C1164   1.478       .  S
Cd632       O639   2.496       .  S
Cd632       O638   2.477       .  S
Cd632       O637   2.465       .  S
Cd632       O633   2.514       .  S
Cd632       O636   2.475       .  S
Cd632       O634   2.458       .  S
C635        O639   1.270       .  A
C635       C1154   1.489       .  S
O640        C643   1.263       .  A
O640       Cd645   2.468       .  S
C641        O650   1.265       .  A
C641        O646   1.264       .  A
C641       C1167   1.476       .  S
O642        C648   1.265       .  A
O642       Cd645   2.507       .  S
C643        O651   1.268       .  A
C643       C1187   1.489       .  S
C644        O649   1.262       .  A
C644        O647   1.267       .  A
C644       C1244   1.489       .  S
Cd645       O652   2.486       .  S
Cd645       O651   2.514       .  S
Cd645       O650   2.459       .  S
Cd645       O646   2.461       .  S
Cd645       O649   2.464       .  S
Cd645       O647   2.514       .  S
C648        O652   1.264       .  A
C648       C2007   1.483       .  S
O653        C656   1.265       .  A
O653       Cd658   2.463       .  S
C654        O663   1.265       .  A
C654        O659   1.264       .  A
C654       C1134   1.484       .  S
O655        C661   1.267       .  A
O655       Cd658   2.534       .  S
C656        O664   1.268       .  A
C656       C1124   1.486       .  S
C657        O662   1.267       .  A
C657        O660   1.263       .  A
C657       C1157   1.493       .  S
Cd658       O665   2.455       .  S
Cd658       O664   2.478       .  S
Cd658       O663   2.475       .  S
Cd658       O659   2.461       .  S
Cd658       O662   2.515       .  S
Cd658       O660   2.469       .  S
C661        O665   1.262       .  A
C661       C1927   1.489       .  S
O666        C669   1.263       .  A
O666       Cd671   2.472       .  S
C667        O676   1.262       .  A
C667        O672   1.268       .  A
C667       C1114   1.491       .  S
O668        C674   1.264       .  A
O668       Cd671   2.471       .  S
C669        O677   1.265       .  A
C669       C1957   1.488       .  S
C670        O675   1.266       .  A
C670        O673   1.268       .  A
C670       C1557   1.478       .  S
Cd671       O678   2.445       .  S
Cd671       O677   2.508       .  S
Cd671       O676   2.468       .  S
Cd671       O672   2.523       .  S
Cd671       O675   2.461       .  S
Cd671       O673   2.480       .  S
C674        O678   1.263       .  A
C674       C1137   1.476       .  S
O679        C682   1.264       .  A
O679       Cd684   2.463       .  S
C680        O689   1.269       .  A
C680        O685   1.266       .  A
C680       C1117   1.494       .  S
O681        C687   1.268       .  A
O681       Cd684   2.511       .  S
C682        O690   1.263       .  A
C682       C1104   1.466       .  S
C683        O688   1.264       .  A
C683        O686   1.263       .  A
C683       C2077   1.485       .  S
Cd684       O691   2.434       .  S
Cd684       O690   2.444       .  S
Cd684       O689   2.493       .  S
Cd684       O685   2.475       .  S
Cd684       O688   2.474       .  S
Cd684       O686   2.503       .  S
C687        O691   1.261       .  A
C687       C1094   1.476       .  S
O692        C695   1.264       .  A
O692       Cd697   2.451       .  S
C693        O702   1.261       .  A
C693        O698   1.267       .  A
C693       C1297   1.475       .  S
O694        C700   1.264       .  A
O694       Cd697   2.454       .  S
C695        O703   1.265       .  A
C695       C1997   1.483       .  S
C696        O701   1.265       .  A
C696        O699   1.267       .  A
C696       C1174   1.488       .  S
Cd697       O704   2.451       .  S
Cd697       O703   2.486       .  S
Cd697       O702   2.438       .  S
Cd697       O698   2.485       .  S
Cd697       O701   2.464       .  S
Cd697       O699   2.462       .  S
C700        O704   1.263       .  A
C700       C1107   1.470       .  S
O705        C708   1.265       .  A
O705       Cd710   2.483       .  S
C706        O715   1.265       .  A
C706        O711   1.267       .  A
C706       C1064   1.480       .  S
O707        C713   1.263       .  A
O707       Cd710   2.461       .  S
C708        O716   1.263       .  A
C708       C1637   1.483       .  S
C709        O714   1.264       .  A
C709        O712   1.266       .  A
C709       C1074   1.482       .  S
Cd710       O717   2.476       .  S
Cd710       O716   2.484       .  S
Cd710       O715   2.465       .  S
Cd710       O711   2.472       .  S
Cd710       O714   2.465       .  S
Cd710       O712   2.485       .  S
C713        O717   1.263       .  A
C713       C1084   1.473       .  S
O718        C721   1.265       .  A
O718       Cd723   2.472       .  S
C719        O728   1.270       .  A
C719        O724   1.265       .  A
C719       C1217   1.491       .  S
O720        C726   1.267       .  A
O720       Cd723   2.527       .  S
C721        O729   1.263       .  A
C721       C1087   1.473       .  S
C722        O727   1.266       .  A
C722        O725   1.263       .  A
C722       C1657   1.495       .  S
Cd723       O730   2.475       .  S
Cd723       O729   2.453       .  S
Cd723       O728   2.519       .  S
Cd723       O724   2.460       .  S
Cd723       O727   2.508       .  S
Cd723       O725   2.515       .  S
C726        O730   1.261       .  A
C726       C1054   1.497       .  S
O731        C734   1.264       .  A
O731       Cd736   2.455       .  S
C732        O741   1.264       .  A
C732        O737   1.264       .  A
C732       C1044   1.472       .  S
O733        C739   1.264       .  A
O733       Cd736   2.504       .  S
C734        O742   1.268       .  A
C734       C1034   1.484       .  S
C735        O740   1.267       .  A
C735        O738   1.263       .  A
C735       C1194   1.483       .  S
Cd736       O743   2.475       .  S
Cd736       O742   2.500       .  S
Cd736       O741   2.454       .  S
Cd736       O737   2.459       .  S
Cd736       O740   2.487       .  S
Cd736       O738   2.451       .  S
C739        O743   1.264       .  A
C739       C2177   1.485       .  S
O744        C747   1.270       .  A
O744       Cd749   2.564       .  S
C745        O754   1.261       .  A
C745        O750   1.268       .  A
C745       C1437   1.493       .  S
O746        C752   1.266       .  A
O746       Cd749   2.451       .  S
C747        O755   1.260       .  A
C747       C2147   1.497       .  S
C748        O753   1.263       .  A
C748        O751   1.267       .  A
C748       C1057   1.486       .  S
Cd749       O756   2.454       .  S
Cd749       O755   2.434       .  S
Cd749       O754   2.472       .  S
Cd749       O750   2.526       .  S
Cd749       O753   2.476       .  S
Cd749       O751   2.504       .  S
C752        O756   1.266       .  A
C752       C1047   1.472       .  S
O757        C760   1.263       .  A
O757       Cd762   2.449       .  S
C758        O767   1.265       .  A
C758        O763   1.263       .  A
C758       C2167   1.486       .  S
O759        C765   1.264       .  A
O759       Cd762   2.454       .  S
C760        O768   1.267       .  A
C760       C1127   1.481       .  S
C761        O766   1.264       .  A
C761        O764   1.265       .  A
C761       C1024   1.473       .  S
Cd762       O769   2.500       .  S
Cd762       O768   2.500       .  S
Cd762       O767   2.483       .  S
Cd762       O763   2.490       .  S
Cd762       O766   2.449       .  S
Cd762       O764   2.463       .  S
C765        O769   1.269       .  A
C765       C1014   1.483       .  S
O770        C773   1.263       .  A
O770       Cd775   2.441       .  S
C771        O780   1.264       .  A
C771        O776   1.265       .  A
C771       C1027   1.479       .  S
O772        C778   1.267       .  A
O772       Cd775   2.510       .  S
C773        O781   1.268       .  A
C773       C1067   1.486       .  S
C774        O779   1.268       .  A
C774        O777   1.263       .  A
C774       C1374   1.481       .  S
Cd775       O782   2.450       .  S
Cd775       O781   2.496       .  S
Cd775       O780   2.467       .  S
Cd775       O776   2.460       .  S
Cd775       O779   2.495       .  S
Cd775       O777   2.430       .  S
C778        O782   1.264       .  A
C778       C2137   1.486       .  S
O783        C786   1.265       .  A
O783       Cd788   2.472       .  S
C784        O793   1.264       .  A
C784        O789   1.266       .  A
C784       C1007   1.474       .  S
O785        C791   1.265       .  A
O785       Cd788   2.478       .  S
C786        O794   1.268       .  A
C786        C994   1.489       .  S
C787        O792   1.266       .  A
C787        O790   1.259       .  A
C787       C1017   1.477       .  S
Cd788       O795   2.496       .  S
Cd788       O794   2.479       .  S
Cd788       O793   2.445       .  S
Cd788       O789   2.458       .  S
Cd788       O792   2.518       .  S
Cd788       O790   2.444       .  S
C791        O795   1.263       .  A
C791       C1717   1.488       .  S
O796        C799   1.267       .  A
O796       Cd801   2.519       .  S
C797        O806   1.265       .  A
C797        O802   1.265       .  A
C797       C1687   1.489       .  S
O798        C804   1.262       .  A
O798       Cd801   2.457       .  S
C799        O807   1.262       .  A
C799       C1037   1.491       .  S
C800        O805   1.264       .  A
C800        O803   1.264       .  A
C800       C1004   1.479       .  S
Cd801       O808   2.528       .  S
Cd801       O807   2.471       .  S
Cd801       O806   2.498       .  S
Cd801       O802   2.488       .  S
Cd801       O805   2.465       .  S
Cd801       O803   2.464       .  S
C804        O808   1.269       .  A
C804       C1267   1.491       .  S
O809        C812   1.267       .  A
O809       Cd814   2.484       .  S
C810        O819   1.261       .  A
C810        O815   1.268       .  A
C810       C1757   1.492       .  S
O811        C817   1.262       .  A
O811       Cd814   2.438       .  S
C812        O820   1.264       .  A
C812        C974   1.487       .  S
C813        O818   1.264       .  A
C813        O816   1.265       .  A
C813        C984   1.477       .  S
Cd814       O821   2.487       .  S
Cd814       O820   2.475       .  S
Cd814       O819   2.448       .  S
Cd814       O815   2.551       .  S
Cd814       O818   2.440       .  S
Cd814       O816   2.451       .  S
C817        O821   1.269       .  A
C817       C1097   1.477       .  S
O822        C825   1.268       .  A
O822       Cd827   2.501       .  S
C823        O832   1.264       .  A
C823        O828   1.265       .  A
C823       C1777   1.493       .  S
O824        C830   1.264       .  A
O824       Cd827   2.455       .  S
C825        O833   1.262       .  A
C825        C967   1.482       .  S
C826        O831   1.265       .  A
C826        O829   1.268       .  A
C826       C1344   1.476       .  S
Cd827       O834   2.455       .  S
Cd827       O833   2.464       .  S
Cd827       O832   2.491       .  S
Cd827       O828   2.503       .  S
Cd827       O831   2.432       .  S
Cd827       O829   2.482       .  S
C830        O834   1.264       .  A
C830        C987   1.475       .  S
O835        C838   1.263       .  A
O835       Cd840   2.502       .  S
C836        O845   1.262       .  A
C836        O841   1.268       .  A
C836        C997   1.474       .  S
O837        C843   1.265       .  A
O837       Cd840   2.463       .  S
C838        O846   1.264       .  A
C838       C2297   1.486       .  S
C839        O844   1.264       .  A
C839        O842   1.268       .  A
C839        C944   1.485       .  S
Cd840       O847   2.426       .  S
Cd840       O846   2.476       .  S
Cd840       O845   2.443       .  S
Cd840       O841   2.496       .  S
Cd840       O844   2.457       .  S
Cd840       O842   2.485       .  S
C843        O847   1.263       .  A
C843        C954   1.469       .  S
O848        C851   1.263       .  A
O848       Cd853   2.445       .  S
C849        O858   1.263       .  A
C849        O854   1.261       .  A
C849        C957   1.472       .  S
O850        C856   1.268       .  A
O850       Cd853   2.518       .  S
C851        O859   1.269       .  A
C851        C977   1.482       .  S
C852        O857   1.266       .  A
C852        O855   1.262       .  A
C852       C1527   1.487       .  S
Cd853       O860   2.451       .  S
Cd853       O859   2.489       .  S
Cd853       O858   2.461       .  S
Cd853       O854   2.452       .  S
Cd853       O857   2.491       .  S
Cd853       O855   2.463       .  S
C856        O860   1.264       .  A
C856       C2264   1.489       .  S
O861        C864   1.267       .  A
O861       Cd866   2.498       .  S
C862        O871   1.263       .  A
C862        O867   1.264       .  A
C862       C1807   1.478       .  S
O863        C869   1.264       .  A
O863       Cd866   2.466       .  S
C864        O872   1.262       .  A
C864        C947   1.484       .  S
C865        O870   1.264       .  A
C865        O868   1.267       .  A
C865       C1147   1.485       .  S
Cd866       O873   2.473       .  S
Cd866       O872   2.452       .  S
Cd866       O871   2.482       .  S
Cd866       O867   2.476       .  S
Cd866       O870   2.453       .  S
Cd866       O868   2.486       .  S
C869        O873   1.265       .  A
C869        C934   1.482       .  S
O874        C877   1.266       .  A
O874       Cd879   2.496       .  S
C875        O884   1.263       .  A
C875        O880   1.265       .  A
C875       C1834   1.481       .  S
O876        C882   1.263       .  A
O876       Cd879   2.461       .  S
C877        O885   1.263       .  A
C877        C924   1.492       .  S
C878        O883   1.265       .  A
C878        O881   1.264       .  A
C878        C937   1.470       .  S
Cd879       O886   2.494       .  S
Cd879       O885   2.489       .  S
Cd879       O884   2.485       .  S
Cd879       O880   2.486       .  S
Cd879       O883   2.462       .  S
Cd879       O881   2.459       .  S
C882        O886   1.267       .  A
C882       C1407   1.485       .  S
O887        C890   1.265       .  A
O887       Cd892   2.486       .  S
C888        O897   1.262       .  A
C888        O893   1.267       .  A
C888       C1077   1.490       .  S
O889        C895   1.266       .  A
O889       Cd892   2.459       .  S
C890        O898   1.262       .  A
C890       C2287   1.486       .  S
C891        O896   1.265       .  A
C891        O894   1.263       .  A
C891        C914   1.475       .  S
Cd892       O899   2.493       .  S
Cd892       O898   2.498       .  S
Cd892       O897   2.458       .  S
Cd892       O893   2.507       .  S
Cd892       O896   2.485       .  S
Cd892       O894   2.449       .  S
C895        O899   1.269       .  A
C895        C927   1.490       .  S
O900        C903   1.267       .  A
O900       Cd905   2.534       .  S
C901        O910   1.262       .  A
C901        O906   1.265       .  A
C901       C1584   1.483       .  S
O902        C908   1.265       .  A
O902       Cd905   2.454       .  S
C903        O911   1.262       .  A
C903       C2257   1.487       .  S
C904        O909   1.263       .  A
C904        O907   1.266       .  A
C904        C964   1.487       .  S
Cd905       O912   2.467       .  S
Cd905       O911   2.441       .  S
Cd905       O910   2.480       .  S
Cd905       O906   2.498       .  S
Cd905       O909   2.462       .  S
Cd905       O907   2.503       .  S
C908        O912   1.267       .  A
C908        C917   1.477       .  S
C913        C914   1.409       .  A
C913        C918   1.409       .  A
C913       Br920   1.930       .  S
C914        C915   1.410       .  A
C915        C916   1.406       .  A
C915       Br922   1.934       .  S
C916        C917   1.411   1_655  A
C916       Br921   1.932   1_655  S
C917        C918   1.412   1_455  A
C918       Br919   1.931   1_655  S
C923        C924   1.414       .  A
C923        C928   1.411       .  A
C923       Br930   1.934       .  S
C924        C925   1.416       .  A
C925        C926   1.414       .  A
C925       Br932   1.932       .  S
C926        C927   1.413       .  A
C926       Br931   1.932       .  S
C927        C928   1.414       .  A
C928       Br929   1.934       .  S
C933        C934   1.415       .  A
C933        C938   1.408       .  A
C933       Br940   1.932       .  S
C934        C935   1.415       .  A
C935        C936   1.407       .  A
C935       Br942   1.932       .  S
C936        C937   1.406       .  A
C936       Br941   1.932       .  S
C937        C938   1.406       .  A
C938       Br939   1.931       .  S
C943        C944   1.414       .  A
C943        C948   1.410       .  A
C943       Br950   1.931       .  S
C944        C945   1.412       .  A
C945        C946   1.409       .  A
C945       Br952   1.932       .  S
C946        C947   1.413       .  A
C946       Br951   1.932       .  S
C947        C948   1.412       .  A
C948       Br949   1.933       .  S
C953        C954   1.409       .  A
C953        C958   1.405   1_655  A
C953       Br960   1.932       .  S
C954        C955   1.409       .  A
C955        C956   1.405   1_655  A
C955       Br962   1.932       .  S
C956        C957   1.412       .  A
C956       Br961   1.934       .  S
C957        C958   1.410       .  A
C958       Br959   1.931       .  S
C963        C964   1.413       .  A
C963        C968   1.412       .  A
C963       Br970   1.931       .  S
C964        C965   1.415       .  A
C965        C966   1.409       .  A
C965       Br972   1.932       .  S
C966        C967   1.409       .  A
C966       Br971   1.933       .  S
C967        C968   1.411       .  A
C968       Br969   1.927       .  S
C973        C974   1.414       .  A
C973        C978   1.411       .  A
C973       Br980   1.931       .  S
C974        C975   1.415       .  A
C975        C976   1.409       .  A
C975       Br982   1.933       .  S
C976        C977   1.411       .  A
C976       Br981   1.933       .  S
C977        C978   1.411       .  A
C978       Br979   1.932       .  S
C983        C984   1.413       .  A
C983        C988   1.407       .  A
C983       Br990   1.934       .  S
C984        C985   1.412       .  A
C985        C986   1.406       .  A
C985       Br992   1.934       .  S
C986        C987   1.412       .  A
C986       Br991   1.934       .  S
C987        C988   1.410       .  A
C988       Br989   1.932       .  S
C993        C994   1.418       .  A
C993        C998   1.410       .  A
C993      Br1000   1.932       .  S
C994        C995   1.416       .  A
C995        C996   1.410       .  A
C995      Br1002   1.931       .  S
C996        C997   1.406       .  A
C996      Br1001   1.930       .  S
C997        C998   1.406       .  A
C998       Br999   1.932       .  S
C1003      C1004   1.412       .  A
C1003      C1008   1.407       .  A
C1003     Br1010   1.932       .  S
C1004      C1005   1.413       .  A
C1005      C1006   1.407       .  A
C1005     Br1012   1.932       .  S
C1006      C1007   1.410       .  A
C1006     Br1011   1.934       .  S
C1007      C1008   1.410       .  A
C1008     Br1009   1.933       .  S
C1013      C1014   1.413       .  A
C1013      C1018   1.408       .  A
C1013     Br1020   1.932       .  S
C1014      C1015   1.412       .  A
C1015      C1016   1.411       .  A
C1015     Br1022   1.927       .  S
C1016      C1017   1.409       .  A
C1016     Br1021   1.929       .  S
C1017      C1018   1.409       .  A
C1018     Br1019   1.932       .  S
C1023      C1024   1.409       .  A
C1023      C1028   1.408   1_556  A
C1023     Br1030   1.933       .  S
C1024      C1025   1.408       .  A
C1025      C1026   1.407   1_556  A
C1025     Br1032   1.932       .  S
C1026      C1027   1.412       .  A
C1026     Br1031   1.932       .  S
C1027      C1028   1.414       .  A
C1028     Br1029   1.932       .  S
C1033      C1034   1.412       .  A
C1033      C1038   1.413       .  A
C1033     Br1040   1.932       .  S
C1034      C1035   1.410       .  A
C1035      C1036   1.410       .  A
C1035     Br1042   1.933       .  S
C1036      C1037   1.416       .  A
C1036     Br1041   1.933       .  S
C1037      C1038   1.414       .  A
C1038     Br1039   1.930       .  S
C1043      C1044   1.411       .  A
C1043      C1048   1.407   1_556  A
C1043     Br1050   1.931       .  S
C1044      C1045   1.410       .  A
C1045      C1046   1.405   1_556  A
C1045     Br1052   1.932       .  S
C1046      C1047   1.411       .  A
C1046     Br1051   1.932       .  S
C1047      C1048   1.409       .  A
C1048     Br1049   1.931       .  S
C1053      C1054   1.419       .  A
C1053      C1058   1.412       .  A
C1053     Br1060   1.933       .  S
C1054      C1055   1.416       .  A
C1055      C1056   1.414       .  A
C1055     Br1062   1.931       .  S
C1056      C1057   1.411       .  A
C1056     Br1061   1.931       .  S
C1057      C1058   1.409       .  A
C1058     Br1059   1.933       .  S
C1063      C1064   1.410       .  A
C1063      C1068   1.407       .  A
C1063     Br1070   1.934       .  S
C1064      C1065   1.411       .  A
C1065      C1066   1.412       .  A
C1065     Br1072   1.931       .  S
C1066      C1067   1.415       .  A
C1066     Br1071   1.931       .  S
C1067      C1068   1.415       .  A
C1068     Br1069   1.935       .  S
C1073      C1074   1.410       .  A
C1073      C1078   1.409       .  A
C1073     Br1080   1.934       .  S
C1074      C1075   1.411       .  A
C1075      C1076   1.412       .  A
C1075     Br1082   1.932       .  S
C1076      C1077   1.414       .  A
C1076     Br1081   1.930       .  S
C1077      C1078   1.417       .  A
C1078     Br1079   1.935       .  S
C1083      C1084   1.410       .  A
C1083      C1088   1.408       .  A
C1083     Br1090   1.930       .  S
C1084      C1085   1.410       .  A
C1085      C1086   1.406       .  A
C1085     Br1092   1.932       .  S
C1086      C1087   1.410       .  A
C1086     Br1091   1.933       .  S
C1087      C1088   1.410       .  A
C1088     Br1089   1.930       .  S
C1093      C1094   1.410       .  A
C1093      C1098   1.410       .  A
C1093     Br1100   1.929       .  S
C1094      C1095   1.410       .  A
C1095      C1096   1.407       .  A
C1095     Br1102   1.932       .  S
C1096      C1097   1.412       .  A
C1096     Br1101   1.934       .  S
C1097      C1098   1.410       .  A
C1098     Br1099   1.929       .  S
C1103      C1104   1.408       .  A
C1103      C1108   1.405   1_565  A
C1103     Br1110   1.931       .  S
C1104      C1105   1.407       .  A
C1105      C1106   1.405       .  A
C1105     Br1112   1.930       .  S
C1106      C1107   1.410   1_565  A
C1106     Br1111   1.931   1_565  S
C1107      C1108   1.411       .  A
C1108     Br1109   1.933       .  S
C1113      C1114   1.412       .  A
C1113      C1118   1.414       .  A
C1113     Br1120   1.932       .  S
C1114      C1115   1.413       .  A
C1115      C1116   1.412       .  A
C1115     Br1122   1.931       .  S
C1116      C1117   1.414       .  A
C1116     Br1121   1.932       .  S
C1117      C1118   1.417       .  A
C1118     Br1119   1.934       .  S
C1123      C1124   1.416       .  A
C1123      C1128   1.410       .  A
C1123     Br1130   1.934       .  S
C1124      C1125   1.413       .  A
C1125      C1126   1.409       .  A
C1125     Br1132   1.931       .  S
C1126      C1127   1.410       .  A
C1126     Br1131   1.930       .  S
C1127      C1128   1.410       .  A
C1128     Br1129   1.933       .  S
C1133      C1134   1.416       .  A
C1133      C1138   1.409       .  A
C1133     Br1140   1.933       .  S
C1134      C1135   1.415       .  A
C1135      C1136   1.407       .  A
C1135     Br1142   1.932       .  S
C1136      C1137   1.410       .  A
C1136     Br1141   1.936       .  S
C1137      C1138   1.409       .  A
C1138     Br1139   1.933       .  S
C1143      C1144   1.412       .  A
C1143      C1148   1.412       .  A
C1143     Br1150   1.930       .  S
C1144      C1145   1.410       .  A
C1145      C1146   1.409       .  A
C1145     Br1152   1.932       .  S
C1146      C1147   1.414       .  A
C1146     Br1151   1.934       .  S
C1147      C1148   1.413       .  A
C1148     Br1149   1.931       .  S
C1153      C1154   1.413       .  A
C1153      C1158   1.412       .  A
C1153     Br1160   1.933       .  S
C1154      C1155   1.412       .  A
C1155      C1156   1.412       .  A
C1155     Br1162   1.932       .  S
C1156      C1157   1.417       .  A
C1156     Br1161   1.934       .  S
C1157      C1158   1.414       .  A
C1158     Br1159   1.931       .  S
C1163      C1164   1.413       .  A
C1163      C1168   1.407   1_565  A
C1163     Br1170   1.933       .  S
C1164      C1165   1.411       .  A
C1165      C1166   1.408   1_565  A
C1165     Br1172   1.932       .  S
C1166      C1167   1.411       .  A
C1166     Br1171   1.933       .  S
C1167      C1168   1.410       .  A
C1168     Br1169   1.932       .  S
C1173      C1174   1.414       .  A
C1173      C1178   1.409       .  A
C1173     Br1180   1.934       .  S
C1174      C1175   1.417       .  A
C1175      C1176   1.411       .  A
C1175     Br1182   1.935       .  S
C1176      C1177   1.411       .  A
C1176     Br1181   1.933       .  S
C1177      C1178   1.412       .  A
C1178     Br1179   1.934       .  S
C1183      C1184   1.412       .  A
C1183      C1188   1.412       .  A
C1183     Br1190   1.932       .  S
C1184      C1185   1.413       .  A
C1185      C1186   1.413       .  A
C1185     Br1192   1.930       .  S
C1186      C1187   1.412       .  A
C1186     Br1191   1.930       .  S
C1187      C1188   1.415       .  A
C1188     Br1189   1.933       .  S
C1193      C1194   1.414       .  A
C1193      C1198   1.409       .  A
C1193     Br1200   1.934       .  S
C1194      C1195   1.412       .  A
C1195      C1196   1.410       .  A
C1195     Br1202   1.931       .  S
C1196      C1197   1.411       .  A
C1196     Br1201   1.929       .  S
C1197      C1198   1.411       .  A
C1198     Br1199   1.933       .  S
C1203      C1204   1.410       .  A
C1203      C1208   1.407       .  A
C1203     Br1210   1.930       .  S
C1204      C1205   1.411       .  A
C1205      C1206   1.407       .  A
C1205     Br1212   1.933       .  S
C1206      C1207   1.411       .  A
C1206     Br1211   1.932       .  S
C1207      C1208   1.409       .  A
C1208     Br1209   1.931       .  S
C1213      C1214   1.411       .  A
C1213      C1218   1.408       .  A
C1213     Br1220   1.934       .  S
C1214      C1215   1.413       .  A
C1215      C1216   1.415       .  A
C1215     Br1222   1.931       .  S
C1216      C1217   1.414       .  A
C1216     Br1221   1.930       .  S
C1217      C1218   1.413       .  A
C1218     Br1219   1.929       .  S
C1223      C1224   1.410       .  A
C1223      C1228   1.409   1_455  A
C1223     Br1230   1.931       .  S
C1224      C1225   1.410       .  A
C1225      C1226   1.407   1_455  A
C1225     Br1232   1.934       .  S
C1226      C1227   1.411       .  A
C1226     Br1231   1.933       .  S
C1227      C1228   1.411       .  A
C1228     Br1229   1.930       .  S
C1233      C1234   1.414       .  A
C1233      C1238   1.411       .  A
C1233     Br1240   1.931       .  S
C1234      C1235   1.412       .  A
C1235      C1236   1.410       .  A
C1235     Br1242   1.932       .  S
C1236      C1237   1.414       .  A
C1236     Br1241   1.933       .  S
C1237      C1238   1.411       .  A
C1238     Br1239   1.931       .  S
C1243      C1244   1.415       .  A
C1243      C1248   1.410       .  A
C1243     Br1250   1.932       .  S
C1244      C1245   1.412       .  A
C1245      C1246   1.411       .  A
C1245     Br1252   1.932       .  S
C1246      C1247   1.415       .  A
C1246     Br1251   1.934       .  S
C1247      C1248   1.411       .  A
C1248     Br1249   1.932       .  S
C1253      C1254   1.412       .  A
C1253      C1258   1.406       .  A
C1253     Br1260   1.934       .  S
C1254      C1255   1.413       .  A
C1255      C1256   1.406       .  A
C1255     Br1262   1.934       .  S
C1256      C1257   1.412       .  A
C1256     Br1261   1.934       .  S
C1257      C1258   1.412       .  A
C1258     Br1259   1.933       .  S
C1263      C1264   1.415       .  A
C1263      C1268   1.416       .  A
C1263     Br1270   1.930       .  S
C1264      C1265   1.412       .  A
C1265      C1266   1.410       .  A
C1265     Br1272   1.933       .  S
C1266      C1267   1.414       .  A
C1266     Br1271   1.934       .  S
C1267      C1268   1.413       .  A
C1268     Br1269   1.930       .  S
C1273      C1274   1.411       .  A
C1273      C1278   1.411       .  A
C1273     Br1280   1.933       .  S
C1274      C1275   1.413       .  A
C1275      C1276   1.410       .  A
C1275     Br1282   1.933       .  S
C1276      C1277   1.413       .  A
C1276     Br1281   1.932       .  S
C1277      C1278   1.417       .  A
C1278     Br1279   1.934       .  S
C1283      C1284   1.413       .  A
C1283      C1288   1.411       .  A
C1283     Br1290   1.933       .  S
C1284      C1285   1.409       .  A
C1285      C1286   1.406       .  A
C1285     Br1292   1.935       .  S
C1286      C1287   1.412   1_655  A
C1286     Br1291   1.925   1_655  S
C1287      C1288   1.415   1_455  A
C1288     Br1289   1.932   1_655  S
C1293      C1294   1.415       .  A
C1293      C1298   1.408       .  A
C1293     Br1300   1.934       .  S
C1294      C1295   1.412       .  A
C1295      C1296   1.408       .  A
C1295     Br1302   1.932       .  S
C1296      C1297   1.410       .  A
C1296     Br1301   1.932       .  S
C1297      C1298   1.408       .  A
C1298     Br1299   1.933       .  S
C1303      C1304   1.411       .  A
C1303      C1308   1.412       .  A
C1303     Br1310   1.930       .  S
C1304      C1305   1.411       .  A
C1305      C1306   1.406       .  A
C1305     Br1312   1.934       .  S
C1306      C1307   1.412       .  A
C1306     Br1311   1.933       .  S
C1307      C1308   1.411       .  A
C1308     Br1309   1.929       .  S
C1313      C1314   1.411       .  A
C1313      C1318   1.413       .  A
C1313     Br1320   1.930       .  S
C1314      C1315   1.412       .  A
C1315      C1316   1.409       .  A
C1315     Br1322   1.930       .  S
C1316      C1317   1.411       .  A
C1316     Br1321   1.933       .  S
C1317      C1318   1.414       .  A
C1318     Br1319   1.929       .  S
C1323      C1324   1.411       .  A
C1323      C1328   1.405       .  A
C1323     Br1330   1.933       .  S
C1324      C1325   1.410       .  A
C1325      C1326   1.407       .  A
C1325     Br1332   1.927       .  S
C1326      C1327   1.410       .  A
C1326     Br1331   1.932       .  S
C1327      C1328   1.410       .  A
C1328     Br1329   1.933       .  S
C1333      C1334   1.413       .  A
C1333      C1338   1.411       .  A
C1333     Br1340   1.933       .  S
C1334      C1335   1.410       .  A
C1335      C1336   1.411       .  A
C1335     Br1342   1.933       .  S
C1336      C1337   1.417       .  A
C1336     Br1341   1.933       .  S
C1337      C1338   1.415       .  A
C1338     Br1339   1.932       .  S
C1343      C1344   1.411       .  A
C1343      C1348   1.405       .  A
C1343     Br1350   1.934       .  S
C1344      C1345   1.412       .  A
C1345      C1346   1.410       .  A
C1345     Br1352   1.926       .  S
C1346      C1347   1.408       .  A
C1346     Br1351   1.929       .  S
C1347      C1348   1.408       .  A
C1348     Br1349   1.932       .  S
C1353      C1354   1.407       .  A
C1353      C1358   1.405   1_565  A
C1353     Br1360   1.932       .  S
C1354      C1355   1.409       .  A
C1355      C1356   1.405   1_565  A
C1355     Br1362   1.933       .  S
C1356      C1357   1.411       .  A
C1356     Br1361   1.933       .  S
C1357      C1358   1.413       .  A
C1358     Br1359   1.932       .  S
C1363      C1364   1.410       .  A
C1363      C1368   1.411       .  A
C1363     Br1370   1.932       .  S
C1364      C1365   1.408       .  A
C1365      C1366   1.407       .  A
C1365     Br1372   1.929       .  S
C1366      C1367   1.411       .  A
C1366     Br1371   1.931       .  S
C1367      C1368   1.415       .  A
C1368     Br1369   1.933       .  S
C1373      C1374   1.413       .  A
C1373      C1378   1.405       .  A
C1373     Br1380   1.935       .  S
C1374      C1375   1.413       .  A
C1375      C1376   1.412       .  A
C1375     Br1382   1.930       .  S
C1376      C1377   1.409       .  A
C1376     Br1381   1.929       .  S
C1377      C1378   1.407       .  A
C1378     Br1379   1.931       .  S
C1383      C1384   1.415       .  A
C1383      C1388   1.407       .  A
C1383     Br1390   1.934       .  S
C1384      C1385   1.413       .  A
C1385      C1386   1.409       .  A
C1385     Br1392   1.932       .  S
C1386      C1387   1.411       .  A
C1386     Br1391   1.933       .  S
C1387      C1388   1.410       .  A
C1388     Br1389   1.934       .  S
C1393      C1394   1.407       .  A
C1393      C1398   1.409       .  A
C1393     Br1400   1.929       .  S
C1394      C1395   1.409       .  A
C1395      C1396   1.406       .  A
C1395     Br1402   1.932       .  S
C1396      C1397   1.412       .  A
C1396     Br1401   1.933       .  S
C1397      C1398   1.413       .  A
C1398     Br1399   1.929       .  S
C1403      C1404   1.412       .  A
C1403      C1408   1.411       .  A
C1403     Br1410   1.931       .  S
C1404      C1405   1.416       .  A
C1405      C1406   1.411       .  A
C1405     Br1412   1.934       .  S
C1406      C1407   1.411       .  A
C1406     Br1411   1.933       .  S
C1407      C1408   1.413       .  A
C1408     Br1409   1.933       .  S
C1413      C1414   1.413       .  A
C1413      C1418   1.412       .  A
C1413     Br1420   1.931       .  S
C1414      C1415   1.414       .  A
C1415      C1416   1.408       .  A
C1415     Br1422   1.934       .  S
C1416      C1417   1.411       .  A
C1416     Br1421   1.934       .  S
C1417      C1418   1.413       .  A
C1418     Br1419   1.931       .  S
C1423      C1424   1.412       .  A
C1423      C1428   1.406   1_565  A
C1423     Br1430   1.934       .  S
C1424      C1425   1.413       .  A
C1425      C1426   1.406   1_565  A
C1425     Br1432   1.935       .  S
C1426      C1427   1.411       .  A
C1426     Br1431   1.934       .  S
C1427      C1428   1.411       .  A
C1428     Br1429   1.933       .  S
C1433      C1434   1.415       .  A
C1433      C1438   1.412       .  A
C1433     Br1440   1.934       .  S
C1434      C1435   1.411       .  A
C1435      C1436   1.414       .  A
C1435     Br1442   1.931       .  S
C1436      C1437   1.416       .  A
C1436     Br1441   1.931       .  S
C1437      C1438   1.413       .  A
C1438     Br1439   1.932       .  S
C1443      C1444   1.412       .  A
C1443      C1448   1.414       .  A
C1443     Br1450   1.931       .  S
C1444      C1445   1.416       .  A
C1445      C1446   1.412       .  A
C1445     Br1452   1.934       .  S
C1446      C1447   1.412       .  A
C1446     Br1451   1.932       .  S
C1447      C1448   1.417       .  A
C1448     Br1449   1.932       .  S
C1453      C1454   1.412       .  A
C1453      C1458   1.409       .  A
C1453     Br1460   1.930       .  S
C1454      C1455   1.414       .  A
C1455      C1456   1.404       .  A
C1455     Br1462   1.933       .  S
C1456      C1457   1.405       .  A
C1456     Br1461   1.933       .  S
C1457      C1458   1.407       .  A
C1458     Br1459   1.929       .  S
C1463      C1464   1.409       .  A
C1463      C1468   1.404       .  A
C1463     Br1470   1.934       .  S
C1464      C1465   1.409       .  A
C1465      C1466   1.407       .  A
C1465     Br1472   1.932       .  S
C1466      C1467   1.412       .  A
C1466     Br1471   1.932       .  S
C1467      C1468   1.411       .  A
C1468     Br1469   1.933       .  S
C1473      C1474   1.416       .  A
C1473      C1478   1.408       .  A
C1473     Br1480   1.934       .  S
C1474      C1475   1.412       .  A
C1475      C1476   1.407       .  A
C1475     Br1482   1.931       .  S
C1476      C1477   1.409       .  A
C1476     Br1481   1.932       .  S
C1477      C1478   1.407       .  A
C1478     Br1479   1.931       .  S
C1483      C1484   1.413       .  A
C1483      C1488   1.407       .  A
C1483     Br1490   1.934       .  S
C1484      C1485   1.410       .  A
C1485      C1486   1.408       .  A
C1485     Br1492   1.932       .  S
C1486      C1487   1.415       .  A
C1486     Br1491   1.933       .  S
C1487      C1488   1.412       .  A
C1488     Br1489   1.933       .  S
C1493      C1494   1.409       .  A
C1493      C1498   1.405   1_556  A
C1493     Br1500   1.935       .  S
C1494      C1495   1.410       .  A
C1495      C1496   1.406   1_556  A
C1495     Br1502   1.932       .  S
C1496      C1497   1.411       .  A
C1496     Br1501   1.933       .  S
C1497      C1498   1.415       .  A
C1498     Br1499   1.935       .  S
C1503      C1504   1.411       .  A
C1503      C1508   1.413       .  A
C1503     Br1510   1.929       .  S
C1504      C1505   1.407       .  A
C1505      C1506   1.406       .  A
C1505     Br1512   1.929       .  S
C1506      C1507   1.412       .  A
C1506     Br1511   1.926       .  S
C1507      C1508   1.412       .  A
C1508     Br1509   1.929       .  S
C1513      C1514   1.412       .  A
C1513      C1518   1.409       .  A
C1513     Br1520   1.932       .  S
C1514      C1515   1.414       .  A
C1515      C1516   1.413       .  A
C1515     Br1522   1.930       .  S
C1516      C1517   1.411       .  A
C1516     Br1521   1.931       .  S
C1517      C1518   1.412       .  A
C1518     Br1519   1.934       .  S
C1523      C1524   1.413       .  A
C1523      C1528   1.410       .  A
C1523     Br1530   1.933       .  S
C1524      C1525   1.414       .  A
C1525      C1526   1.411       .  A
C1525     Br1532   1.932       .  S
C1526      C1527   1.412       .  A
C1526     Br1531   1.932       .  S
C1527      C1528   1.415       .  A
C1528     Br1529   1.935       .  S
C1533      C1534   1.411       .  A
C1533      C1538   1.409       .  A
C1533     Br1540   1.930       .  S
C1534      C1535   1.412       .  A
C1535      C1536   1.406       .  A
C1535     Br1542   1.933       .  S
C1536      C1537   1.410       .  A
C1536     Br1541   1.934       .  S
C1537      C1538   1.410       .  A
C1538     Br1539   1.931       .  S
C1543      C1544   1.410       .  A
C1543      C1548   1.409       .  A
C1543     Br1550   1.930       .  S
C1544      C1545   1.409       .  A
C1545      C1546   1.408       .  A
C1545     Br1552   1.932       .  S
C1546      C1547   1.412       .  A
C1546     Br1551   1.933       .  S
C1547      C1548   1.410       .  A
C1548     Br1549   1.927       .  S
C1553      C1554   1.413       .  A
C1553      C1558   1.408       .  A
C1553     Br1560   1.933       .  S
C1554      C1555   1.414       .  A
C1555      C1556   1.412       .  A
C1555     Br1562   1.929       .  S
C1556      C1557   1.408       .  A
C1556     Br1561   1.928       .  S
C1557      C1558   1.408       .  A
C1558     Br1559   1.931       .  S
C1563      C1564   1.413       .  A
C1563      C1568   1.410       .  A
C1563     Br1570   1.931       .  S
C1564      C1565   1.413       .  A
C1565      C1566   1.407       .  A
C1565     Br1572   1.933       .  S
C1566      C1567   1.409       .  A
C1566     Br1571   1.932       .  S
C1567      C1568   1.410       .  A
C1568     Br1569   1.931       .  S
C1573      C1574   1.413       .  A
C1573      C1578   1.408   1_556  A
C1573     Br1580   1.931       .  S
C1574      C1575   1.414       .  A
C1575      C1576   1.407   1_556  A
C1575     Br1582   1.935       .  S
C1576      C1577   1.410       .  A
C1576     Br1581   1.934       .  S
C1577      C1578   1.409       .  A
C1578     Br1579   1.932       .  S
C1583      C1584   1.410       .  A
C1583      C1588   1.409       .  A
C1583     Br1590   1.930       .  S
C1584      C1585   1.413       .  A
C1585      C1586   1.411       .  A
C1585     Br1592   1.932       .  S
C1586      C1587   1.411       .  A
C1586     Br1591   1.932       .  S
C1587      C1588   1.411       .  A
C1588     Br1589   1.930       .  S
C1593      C1594   1.416       .  A
C1593      C1598   1.412       .  A
C1593     Br1600   1.935       .  S
C1594      C1595   1.412       .  A
C1595      C1596   1.412       .  A
C1595     Br1602   1.933       .  S
C1596      C1597   1.415       .  A
C1596     Br1601   1.931       .  S
C1597      C1598   1.412       .  A
C1598     Br1599   1.932       .  S
C1603      C1604   1.412       .  A
C1603      C1608   1.412       .  A
C1603     Br1610   1.930       .  S
C1604      C1605   1.412       .  A
C1605      C1606   1.411       .  A
C1605     Br1612   1.932       .  S
C1606      C1607   1.412       .  A
C1606     Br1611   1.932       .  S
C1607      C1608   1.411       .  A
C1608     Br1609   1.929       .  S
C1613      C1614   1.414       .  A
C1613      C1618   1.409       .  A
C1613     Br1620   1.933       .  S
C1614      C1615   1.411       .  A
C1615      C1616   1.413       .  A
C1615     Br1622   1.931       .  S
C1616      C1617   1.416       .  A
C1616     Br1621   1.933       .  S
C1617      C1618   1.410       .  A
C1618     Br1619   1.933       .  S
C1623      C1624   1.410       .  A
C1623      C1628   1.408       .  A
C1623     Br1630   1.930       .  S
C1624      C1625   1.411       .  A
C1625      C1626   1.404       .  A
C1625     Br1632   1.933       .  S
C1626      C1627   1.407       .  A
C1626     Br1631   1.932       .  S
C1627      C1628   1.409       .  A
C1628     Br1629   1.930       .  S
C1633      C1634   1.422       .  A
C1633      C1638   1.408       .  A
C1633     Br1640   1.929       .  S
C1634      C1635   1.421       .  A
C1635      C1636   1.414       .  A
C1635     Br1642   1.931       .  S
C1636      C1637   1.409       .  A
C1636     Br1641   1.929       .  S
C1637      C1638   1.408       .  A
C1638     Br1639   1.934       .  S
C1643      C1644   1.412       .  A
C1643      C1648   1.411       .  A
C1643     Br1650   1.936       .  S
C1644      C1645   1.412       .  A
C1645      C1646   1.417       .  A
C1645     Br1652   1.929       .  S
C1646      C1647   1.414       .  A
C1646     Br1651   1.926       .  S
C1647      C1648   1.419       .  A
C1648     Br1649   1.937   1_455  S
C1653      C1654   1.416       .  A
C1653      C1658   1.408       .  A
C1653     Br1660   1.933       .  S
C1654      C1655   1.411       .  A
C1655      C1656   1.419       .  A
C1655     Br1662   1.926       .  S
C1656      C1657   1.415       .  A
C1656     Br1661   1.927       .  S
C1657      C1658   1.412       .  A
C1658     Br1659   1.932       .  S
C1663      C1664   1.441       .  A
C1663      C1668   1.414       .  A
C1663     Br1670   1.929       .  S
C1664      C1665   1.440       .  A
C1665      C1666   1.417       .  A
C1665     Br1672   1.938       .  S
C1666      C1667   1.402       .  A
C1666     Br1671   1.937       .  S
C1667      C1668   1.398       .  A
C1668     Br1669   1.940       .  S
C1673      C1674   1.417       .  A
C1673      C1678   1.414       .  A
C1673     Br1680   1.929       .  S
C1674      C1675   1.422   1_655  A
C1675      C1676   1.413   1_455  A
C1675     Br1682   1.933       .  S
C1676      C1677   1.419       .  A
C1676     Br1681   1.924   1_655  S
C1677      C1678   1.424       .  A
C1678     Br1679   1.927       .  S
C1683      C1684   1.425       .  A
C1683      C1688   1.410       .  A
C1683     Br1690   1.931       .  S
C1684      C1685   1.425       .  A
C1685      C1686   1.417       .  A
C1685     Br1692   1.931       .  S
C1686      C1687   1.408       .  A
C1686     Br1691   1.931       .  S
C1687      C1688   1.408       .  A
C1688     Br1689   1.935       .  S
C1693      C1694   1.417       .  A
C1693      C1698   1.409       .  A
C1693     Br1700   1.938   1_455  S
C1694      C1695   1.415       .  A
C1695      C1696   1.417       .  A
C1695     Br1702   1.925       .  S
C1696      C1697   1.411       .  A
C1696     Br1701   1.928       .  S
C1697      C1698   1.412       .  A
C1698     Br1699   1.931       .  S
C1703      C1704   1.417       .  A
C1703      C1708   1.419   1_556  A
C1703     Br1710   1.931       .  S
C1704      C1705   1.410       .  A
C1705      C1706   1.408   1_556  A
C1705     Br1712   1.922       .  S
C1706      C1707   1.411       .  A
C1706     Br1711   1.919       .  S
C1707      C1708   1.417       .  A
C1708     Br1709   1.930       .  S
C1713      C1714   1.415       .  A
C1713      C1718   1.406       .  A
C1713     Br1720   1.932       .  S
C1714      C1715   1.410       .  A
C1715      C1716   1.416       .  A
C1715     Br1722   1.925       .  S
C1716      C1717   1.415       .  A
C1716     Br1721   1.928       .  S
C1717      C1718   1.412       .  A
C1718     Br1719   1.937       .  S
C1723      C1724   1.437       .  A
C1723      C1728   1.416       .  A
C1723     Br1730   1.939       .  S
C1724      C1725   1.437       .  A
C1725      C1726   1.412       .  A
C1725     Br1732   1.929       .  S
C1726      C1727   1.401       .  A
C1726     Br1731   1.940       .  S
C1727      C1728   1.406       .  A
C1728     Br1729   1.938       .  S
C1733      C1734   1.412       .  A
C1733      C1738   1.409   1_556  A
C1733     Br1740   1.919       .  S
C1734      C1735   1.416       .  A
C1735      C1736   1.418   1_556  A
C1735     Br1742   1.931       .  S
C1736      C1737   1.418       .  A
C1736     Br1741   1.932       .  S
C1737      C1738   1.409       .  A
C1738     Br1739   1.923       .  S
C1743      C1744   1.422   1_455  A
C1743      C1748   1.412   1_455  A
C1743     Br1750   1.936       .  S
C1744      C1745   1.417       .  A
C1745      C1746   1.412       .  A
C1745     Br1752   1.930       .  S
C1746      C1747   1.423       .  A
C1746     Br1751   1.928       .  S
C1747      C1748   1.420       .  A
C1748     Br1749   1.925   1_655  S
C1753      C1754   1.422       .  A
C1753      C1758   1.417       .  A
C1753     Br1760   1.930       .  S
C1754      C1755   1.423       .  A
C1755      C1756   1.408       .  A
C1755     Br1762   1.927       .  S
C1756      C1757   1.409       .  A
C1756     Br1761   1.936       .  S
C1757      C1758   1.411       .  A
C1758     Br1759   1.927       .  S
C1763      C1764   1.406       .  A
C1763      C1768   1.411       .  A
C1763     Br1770   1.930       .  S
C1764      C1765   1.408       .  A
C1765      C1766   1.409       .  A
C1765     Br1772   1.937       .  S
C1766      C1767   1.418       .  A
C1766     Br1771   1.923       .  S
C1767      C1768   1.420       .  A
C1768     Br1769   1.934       .  S
C1773      C1774   1.422       .  A
C1773      C1778   1.414       .  A
C1773     Br1780   1.935       .  S
C1774      C1775   1.419       .  A
C1775      C1776   1.412       .  A
C1775     Br1782   1.925       .  S
C1776      C1777   1.413       .  A
C1776     Br1781   1.935       .  S
C1777      C1778   1.410       .  A
C1778     Br1779   1.931       .  S
C1783      C1784   1.424       .  A
C1783      C1788   1.414       .  A
C1783     Br1790   1.930       .  S
C1784      C1785   1.424       .  A
C1785      C1786   1.408       .  A
C1785     Br1792   1.926       .  S
C1786      C1787   1.407       .  A
C1786     Br1791   1.938       .  S
C1787      C1788   1.408       .  A
C1788     Br1789   1.929       .  S
C1793      C1794   1.412       .  A
C1793      C1798   1.412       .  A
C1793     Br1800   1.913   1_565  S
C1794      C1795   1.415       .  A
C1795      C1796   1.409       .  A
C1795     Br1802   1.921       .  S
C1796      C1797   1.413       .  A
C1796     Br1801   1.923   1_565  S
C1797      C1798   1.408       .  A
C1798     Br1799   1.920       .  S
C1803      C1804   1.420       .  A
C1803      C1808   1.412       .  A
C1803     Br1810   1.933       .  S
C1804      C1805   1.418       .  A
C1805      C1806   1.408       .  A
C1805     Br1812   1.922       .  S
C1806      C1807   1.407       .  A
C1806     Br1811   1.937       .  S
C1807      C1808   1.406       .  A
C1808     Br1809   1.928       .  S
C1813      C1814   1.428       .  A
C1813      C1818   1.412       .  A
C1813     Br1820   1.928       .  S
C1814      C1815   1.433       .  A
C1815      C1816   1.414       .  A
C1815     Br1822   1.937       .  S
C1816      C1817   1.405       .  A
C1816     Br1821   1.935       .  S
C1817      C1818   1.406       .  A
C1818     Br1819   1.938       .  S
C1823      C1824   1.424       .  A
C1823      C1828   1.417   1_655  A
C1823     Br1830   1.931       .  S
C1824      C1825   1.425   1_565  A
C1825      C1826   1.413   1_655  A
C1825     Br1832   1.920       .  S
C1826      C1827   1.412   1_545  A
C1826     Br1831   1.931       .  S
C1827      C1828   1.419       .  A
C1828     Br1829   1.936       .  S
C1833      C1834   1.406       .  A
C1833      C1838   1.415       .  A
C1833     Br1840   1.929       .  S
C1834      C1835   1.404       .  A
C1835      C1836   1.407       .  A
C1835     Br1842   1.937       .  S
C1836      C1837   1.429       .  A
C1836     Br1841   1.932       .  S
C1837      C1838   1.423       .  A
C1838     Br1839   1.928       .  S
C1843      C1844   1.412       .  A
C1843      C1848   1.412       .  A
C1843     Br1850   1.937       .  S
C1844      C1845   1.408       .  A
C1845      C1846   1.412       .  A
C1845     Br1852   1.929       .  S
C1846      C1847   1.417       .  A
C1846     Br1851   1.930       .  S
C1847      C1848   1.418       .  A
C1848     Br1849   1.921       .  S
C1853      C1854   1.421   1_545  A
C1853      C1858   1.419   1_655  A
C1853     Br1860   1.930       .  S
C1854      C1855   1.423       .  A
C1855      C1856   1.410   1_655  A
C1855     Br1862   1.924       .  S
C1856      C1857   1.409       .  A
C1856     Br1861   1.929       .  S
C1857      C1858   1.421   1_565  A
C1858     Br1859   1.933       .  S
C1863      C1864   1.404       .  A
C1863      C1868   1.404       .  A
C1863     Br1870   1.918       .  S
C1864      C1865   1.417       .  A
C1865      C1866   1.409       .  A
C1865     Br1872   1.936       .  S
C1866      C1867   1.416       .  A
C1866     Br1871   1.936       .  S
C1867      C1868   1.408       .  A
C1868     Br1869   1.922   1_565  S
C1873      C1874   1.404       .  A
C1873      C1878   1.416       .  A
C1873     Br1880   1.928       .  S
C1874      C1875   1.400       .  A
C1875      C1876   1.409       .  A
C1875     Br1882   1.938       .  S
C1876      C1877   1.435       .  A
C1876     Br1881   1.933       .  S
C1877      C1878   1.425       .  A
C1878     Br1879   1.925       .  S
C1883      C1884   1.419       .  A
C1883      C1888   1.414       .  A
C1883     Br1890   1.930       .  S
C1884      C1885   1.423       .  A
C1885      C1886   1.418       .  A
C1885     Br1892   1.926       .  S
C1886      C1887   1.414       .  A
C1886     Br1891   1.935       .  S
C1887      C1888   1.408       .  A
C1888     Br1889   1.930       .  S
C1893      C1894   1.425       .  A
C1893      C1898   1.408       .  A
C1893     Br1900   1.933       .  S
C1894      C1895   1.421       .  A
C1895      C1896   1.414       .  A
C1895     Br1902   1.926       .  S
C1896      C1897   1.407       .  A
C1896     Br1901   1.932       .  S
C1897      C1898   1.407       .  A
C1898     Br1899   1.940       .  S
C1903      C1904   1.423       .  A
C1903      C1908   1.409       .  A
C1903     Br1910   1.931       .  S
C1904      C1905   1.423       .  A
C1905      C1906   1.411       .  A
C1905     Br1912   1.934       .  S
C1906      C1907   1.406       .  A
C1906     Br1911   1.930       .  S
C1907      C1908   1.408       .  A
C1908     Br1909   1.934       .  S
C1913      C1914   1.401       .  A
C1913      C1918   1.412       .  A
C1913     Br1920   1.933       .  S
C1914      C1915   1.407   1_556  A
C1915      C1916   1.409       .  A
C1915     Br1922   1.940       .  S
C1916      C1917   1.427   1_554  A
C1916     Br1921   1.931       .  S
C1917      C1918   1.431       .  A
C1918     Br1919   1.929       .  S
C1923      C1924   1.416       .  A
C1923      C1928   1.417       .  A
C1923     Br1930   1.930       .  S
C1924      C1925   1.412       .  A
C1925      C1926   1.407       .  A
C1925     Br1932   1.930       .  S
C1926      C1927   1.413       .  A
C1926     Br1931   1.935       .  S
C1927      C1928   1.412       .  A
C1928     Br1929   1.928       .  S
C1933      C1934   1.423       .  A
C1933      C1938   1.418       .  A
C1933     Br1940   1.930       .  S
C1934      C1935   1.426       .  A
C1935      C1936   1.408       .  A
C1935     Br1942   1.934       .  S
C1936      C1937   1.410       .  A
C1936     Br1941   1.937       .  S
C1937      C1938   1.412       .  A
C1938     Br1939   1.929       .  S
C1943      C1944   1.422   1_565  A
C1943      C1948   1.413       .  A
C1943     Br1950   1.928       .  S
C1944      C1945   1.418   1_546  A
C1945      C1946   1.417       .  A
C1945     Br1952   1.931   1_565  S
C1946      C1947   1.423       .  A
C1946     Br1951   1.932       .  S
C1947      C1948   1.419   1_554  A
C1948     Br1949   1.932       .  S
C1953      C1954   1.428       .  A
C1953      C1958   1.411       .  A
C1953     Br1960   1.933       .  S
C1954      C1955   1.424       .  A
C1955      C1956   1.414       .  A
C1955     Br1962   1.924       .  S
C1956      C1957   1.406       .  A
C1956     Br1961   1.931       .  S
C1957      C1958   1.409       .  A
C1958     Br1959   1.937       .  S
C1963      C1964   1.411       .  A
C1963      C1968   1.414       .  A
C1963     Br1970   1.924       .  S
C1964      C1965   1.413       .  A
C1965      C1966   1.404       .  A
C1965     Br1972   1.928       .  S
C1966      C1967   1.408       .  A
C1966     Br1971   1.936       .  S
C1967      C1968   1.409       .  A
C1968     Br1969   1.927       .  S
C1973      C1974   1.424   1_556  A
C1973      C1978   1.417   1_556  A
C1973     Br1980   1.925       .  S
C1974      C1975   1.422       .  A
C1975      C1976   1.404       .  A
C1975     Br1982   1.916       .  S
C1976      C1977   1.403   1_565  A
C1976     Br1981   1.935   1_565  S
C1977      C1978   1.407   1_545  A
C1978     Br1979   1.929   1_564  S
C1983      C1984   1.418   1_556  A
C1983      C1988   1.409       .  A
C1983     Br1990   1.943       .  S
C1984      C1985   1.417       .  A
C1985      C1986   1.411       .  A
C1985     Br1992   1.930       .  S
C1986      C1987   1.423       .  A
C1986     Br1991   1.939       .  S
C1987      C1988   1.425   1_554  A
C1988     Br1989   1.933       .  S
C1993      C1994   1.424       .  A
C1993      C1998   1.405       .  A
C1993     Br2000   1.941       .  S
C1994      C1995   1.419       .  A
C1995      C1996   1.413       .  A
C1995     Br2002   1.931       .  S
C1996      C1997   1.410       .  A
C1996     Br2001   1.931       .  S
C1997      C1998   1.411       .  A
C1998     Br1999   1.936       .  S
C2003      C2004   1.423       .  A
C2003      C2008   1.408       .  A
C2003     Br2010   1.935       .  S
C2004      C2005   1.417       .  A
C2005      C2006   1.416       .  A
C2005     Br2012   1.926       .  S
C2006      C2007   1.411       .  A
C2006     Br2011   1.927       .  S
C2007      C2008   1.404       .  A
C2008     Br2009   1.929       .  S
C2013      C2014   1.413       .  A
C2013      C2018   1.414       .  A
C2013     Br2020   1.938       .  S
C2014      C2015   1.411       .  A
C2015      C2016   1.412       .  A
C2015     Br2022   1.931       .  S
C2016      C2017   1.417       .  A
C2016     Br2021   1.929       .  S
C2017      C2018   1.423       .  A
C2018     Br2019   1.928       .  S
C2023      C2024   1.397       .  A
C2023      C2028   1.399       .  A
C2023     Br2030   1.944       .  S
C2024      C2025   1.406       .  A
C2025      C2026   1.426       .  A
C2025     Br2032   1.930       .  S
C2026      C2027   1.433       .  A
C2026     Br2031   1.920       .  S
C2027      C2028   1.436       .  A
C2028     Br2029   1.929       .  S
C2033      C2034   1.436       .  A
C2033      C2038   1.416       .  A
C2033     Br2040   1.936       .  S
C2034      C2035   1.425       .  A
C2035      C2036   1.416       .  A
C2035     Br2042   1.927       .  S
C2036      C2037   1.406       .  A
C2036     Br2041   1.929       .  S
C2037      C2038   1.404       .  A
C2038     Br2039   1.921       .  S
C2043      C2044   1.435       .  A
C2043      C2048   1.423       .  A
C2043     Br2050   1.924       .  S
C2044      C2045   1.441       .  A
C2045      C2046   1.405       .  A
C2045     Br2052   1.931       .  S
C2046      C2047   1.398       .  A
C2046     Br2051   1.949       .  S
C2047      C2048   1.404       .  A
C2048     Br2049   1.932       .  S
C2053      C2054   1.421       .  A
C2053      C2058   1.414       .  A
C2053     Br2060   1.927       .  S
C2054      C2055   1.424       .  A
C2055      C2056   1.412       .  A
C2055     Br2062   1.922       .  S
C2056      C2057   1.409       .  A
C2056     Br2061   1.938       .  S
C2057      C2058   1.408       .  A
C2058     Br2059   1.932       .  S
C2063      C2064   1.409       .  A
C2063      C2068   1.404   1_565  A
C2063     Br2070   1.926       .  S
C2064      C2065   1.406       .  A
C2065      C2066   1.403   1_565  A
C2065     Br2072   1.920       .  S
C2066      C2067   1.408       .  A
C2066     Br2071   1.917       .  S
C2067      C2068   1.410       .  A
C2068     Br2069   1.921       .  S
C2073      C2074   1.415       .  A
C2073      C2078   1.405       .  A
C2073     Br2080   1.923       .  S
C2074      C2075   1.412       .  A
C2075      C2076   1.418       .  A
C2075     Br2082   1.919       .  S
C2076      C2077   1.412       .  A
C2076     Br2081   1.928       .  S
C2077      C2078   1.409       .  A
C2078     Br2079   1.938       .  S
C2083      C2084   1.425       .  A
C2083      C2088   1.406       .  A
C2083     Br2090   1.922       .  S
C2084      C2085   1.426       .  A
C2085      C2086   1.418       .  A
C2085     Br2092   1.932       .  S
C2086      C2087   1.407       .  A
C2086     Br2091   1.928       .  S
C2087      C2088   1.405       .  A
C2088     Br2089   1.940       .  S
C2093      C2094   1.425       .  A
C2093      C2098   1.418   1_565  A
C2093     Br2100   1.936       .  S
C2094      C2095   1.431       .  A
C2095      C2096   1.411   1_565  A
C2095     Br2102   1.944       .  S
C2096      C2097   1.407       .  A
C2096     Br2101   1.924       .  S
C2097      C2098   1.427       .  A
C2098     Br2099   1.946       .  S
C2103      C2104   1.411       .  A
C2103      C2108   1.420       .  A
C2103     Br2110   1.928       .  S
C2104      C2105   1.407       .  A
C2105      C2106   1.412       .  A
C2105     Br2112   1.920       .  S
C2106      C2107   1.427       .  A
C2106     Br2111   1.934       .  S
C2107      C2108   1.423       .  A
C2108     Br2109   1.931       .  S
C2113      C2114   1.411       .  A
C2113      C2118   1.413       .  A
C2113     Br2120   1.933       .  S
C2114      C2115   1.407       .  A
C2115      C2116   1.411       .  A
C2115     Br2122   1.929       .  S
C2116      C2117   1.420       .  A
C2116     Br2121   1.934       .  S
C2117      C2118   1.416       .  A
C2118     Br2119   1.925       .  S
C2123      C2124   1.424       .  A
C2123      C2128   1.417       .  A
C2123     Br2130   1.929       .  S
C2124      C2125   1.425       .  A
C2125      C2126   1.406       .  A
C2125     Br2132   1.927       .  S
C2126      C2127   1.406       .  A
C2126     Br2131   1.939       .  S
C2127      C2128   1.409       .  A
C2128     Br2129   1.927       .  S
C2133      C2134   1.415       .  A
C2133      C2138   1.407       .  A
C2133     Br2140   1.930       .  S
C2134      C2135   1.415       .  A
C2135      C2136   1.414       .  A
C2135     Br2142   1.931       .  S
C2136      C2137   1.411       .  A
C2136     Br2141   1.929       .  S
C2137      C2138   1.412       .  A
C2138     Br2139   1.936       .  S
C2143      C2144   1.425       .  A
C2143      C2148   1.420       .  A
C2143     Br2150   1.931       .  S
C2144      C2145   1.427       .  A
C2145      C2146   1.409       .  A
C2145     Br2152   1.937       .  S
C2146      C2147   1.410       .  A
C2146     Br2151   1.939       .  S
C2147      C2148   1.412       .  A
C2148     Br2149   1.928       .  S
C2153      C2154   1.421       .  A
C2153      C2158   1.414       .  A
C2153     Br2160   1.929       .  S
C2154      C2155   1.420       .  A
C2155      C2156   1.416       .  A
C2155     Br2162   1.935       .  S
C2156      C2157   1.420       .  A
C2156     Br2161   1.930       .  S
C2157      C2158   1.421       .  A
C2158     Br2159   1.941       .  S
C2163      C2164   1.426       .  A
C2163      C2168   1.417       .  A
C2163     Br2170   1.928       .  S
C2164      C2165   1.432       .  A
C2165      C2166   1.408       .  A
C2165     Br2172   1.943       .  S
C2166      C2167   1.406       .  A
C2166     Br2171   1.937       .  S
C2167      C2168   1.408       .  A
C2168     Br2169   1.933       .  S
C2173      C2174   1.421       .  A
C2173      C2178   1.408       .  A
C2173     Br2180   1.935       .  S
C2174      C2175   1.416       .  A
C2175      C2176   1.413       .  A
C2175     Br2182   1.930       .  S
C2176      C2177   1.413       .  A
C2176     Br2181   1.928       .  S
C2177      C2178   1.407       .  A
C2178     Br2179   1.931       .  S
C2183      C2184   1.405       .  A
C2183      C2188   1.410   1_556  A
C2183     Br2190   1.927       .  S
C2184      C2185   1.416       .  A
C2185      C2186   1.411   1_556  A
C2185     Br2192   1.946       .  S
C2186      C2187   1.433       .  A
C2186     Br2191   1.937       .  S
C2187      C2188   1.428       .  A
C2188     Br2189   1.936       .  S
C2193      C2194   1.429       .  A
C2193      C2198   1.405       .  A
C2193     Br2200   1.924       .  S
C2194      C2195   1.432       .  A
C2195      C2196   1.418       .  A
C2195     Br2202   1.935       .  S
C2196      C2197   1.404       .  A
C2196     Br2201   1.930       .  S
C2197      C2198   1.403       .  A
C2198     Br2199   1.943       .  S
C2203      C2204   1.429       .  A
C2203      C2208   1.409       .  A
C2203     Br2210   1.933       .  S
C2204      C2205   1.421       .  A
C2205      C2206   1.414       .  A
C2205     Br2212   1.927       .  S
C2206      C2207   1.407       .  A
C2206     Br2211   1.931       .  S
C2207      C2208   1.407       .  A
C2208     Br2209   1.941       .  S
C2213      C2214   1.420       .  A
C2213      C2218   1.416   1_556  A
C2213     Br2220   1.926       .  S
C2214      C2215   1.408       .  A
C2215      C2216   1.405   1_556  A
C2215     Br2222   1.919       .  S
C2216      C2217   1.411       .  A
C2216     Br2221   1.922       .  S
C2217      C2218   1.412       .  A
C2218     Br2219   1.924       .  S
C2223      C2224   1.403       .  A
C2223      C2228   1.406       .  A
C2223     Br2230   1.937       .  S
C2224      C2225   1.407       .  A
C2225      C2226   1.415       .  A
C2225     Br2232   1.928       .  S
C2226      C2227   1.420       .  A
C2226     Br2231   1.930       .  S
C2227      C2228   1.421       .  A
C2228     Br2229   1.919       .  S
C2233      C2234   1.420       .  A
C2233      C2238   1.420       .  A
C2233     Br2240   1.930       .  S
C2234      C2235   1.427       .  A
C2235      C2236   1.411       .  A
C2235     Br2242   1.931       .  S
C2236      C2237   1.407       .  A
C2236     Br2241   1.939       .  S
C2237      C2238   1.410       .  A
C2238     Br2239   1.927       .  S
C2243      C2244   1.428       .  A
C2243      C2248   1.421       .  A
C2243     Br2250   1.923       .  S
C2244      C2245   1.440       .  A
C2245      C2246   1.404       .  A
C2245     Br2252   1.945       .  S
C2246      C2247   1.400       .  A
C2246     Br2251   1.939       .  S
C2247      C2248   1.406       .  A
C2248     Br2249   1.930       .  S
C2253      C2254   1.424       .  A
C2253      C2258   1.419       .  A
C2253     Br2260   1.928       .  S
C2254      C2255   1.429       .  A
C2255      C2256   1.406       .  A
C2255     Br2262   1.938       .  S
C2256      C2257   1.405       .  A
C2256     Br2261   1.937       .  S
C2257      C2258   1.410       .  A
C2258     Br2259   1.928       .  S
C2263      C2264   1.410       .  A
C2263      C2268   1.416       .  A
C2263     Br2270   1.930       .  S
C2264      C2265   1.410       .  A
C2265      C2266   1.409       .  A
C2265     Br2272   1.938       .  S
C2266      C2267   1.416       .  A
C2266     Br2271   1.923       .  S
C2267      C2268   1.420       .  A
C2268     Br2269   1.930       .  S
C2273      C2274   1.402       .  A
C2273      C2278   1.417       .  A
C2273     Br2280   1.926       .  S
C2274      C2275   1.407       .  A
C2275      C2276   1.418       .  A
C2275     Br2282   1.940       .  S
C2276      C2277   1.439       .  A
C2276     Br2281   1.931       .  S
C2277      C2278   1.430       .  A
C2278     Br2279   1.927       .  S
C2283      C2284   1.420       .  A
C2283      C2288   1.408       .  A
C2283     Br2290   1.923       .  S
C2284      C2285   1.418       .  A
C2285      C2286   1.417       .  A
C2285     Br2292   1.928       .  S
C2286      C2287   1.410       .  A
C2286     Br2291   1.929       .  S
C2287      C2288   1.408       .  A
C2288     Br2289   1.939       .  S
C2293      C2294   1.429       .  A
C2293      C2298   1.419       .  A
C2293     Br2300   1.921       .  S
C2294      C2295   1.439       .  A
C2295      C2296   1.410       .  A
C2295     Br2302   1.938       .  S
C2296      C2297   1.403       .  A
C2296     Br2301   1.943       .  S
C2297      C2298   1.404       .  A
C2298     Br2299   1.932       .  S
C2303      C2304   1.397       .  A
C2303      C2308   1.407   1_655  A
C2303     Br2310   1.926       .  S
C2304      C2305   1.409       .  A
C2305      C2306   1.414   1_655  A
C2305     Br2312   1.939       .  S
C2306      C2307   1.432       .  A
C2306     Br2311   1.926       .  S
C2307      C2308   1.433       .  A
C2308     Br2309   1.930       .  S
C2313      C2314   1.432       .  A
C2313      C2318   1.420       .  A
C2313     Br2320   1.933       .  S
C2314      C2315   1.437       .  A
C2315      C2316   1.410       .  A
C2315     Br2322   1.942       .  S
C2316      C2317   1.404       .  A
C2316     Br2321   1.939       .  S
C2317      C2318   1.410       .  A
C2318     Br2319   1.937       .  S
C2323      C2324   1.408       .  A
C2323      C2328   1.417       .  A
C2323     Br2330   1.929       .  S
C2324      C2325   1.409       .  A
C2325      C2326   1.412       .  A
C2325     Br2332   1.936       .  S
C2326      C2327   1.420       .  A
C2326     Br2331   1.922       .  S
C2327      C2328   1.423       .  A
C2328     Br2329   1.930       .  S
C2333      C2334   1.426       .  A
C2333      C2338   1.403   1_655  A
C2333     Br2340   1.934       .  S
C2334      C2335   1.429       .  A
C2335      C2336   1.415       .  A
C2335     Br2342   1.927       .  S
C2336      C2337   1.411   1_655  A
C2336     Br2341   1.938   1_655  S
C2337      C2338   1.398       .  A
C2338     Br2339   1.925       .  S
C2343      C2344   1.408       .  A
C2343      C2348   1.416       .  A
C2343     Br2350   1.936       .  S
C2344      C2345   1.404       .  A
C2345      C2346   1.417       .  A
C2345     Br2352   1.925       .  S
C2346      C2347   1.425       .  A
C2346     Br2351   1.925       .  S
C2347      C2348   1.431       .  A
C2348     Br2349   1.928       .  S
