geometry optimzed in LAMMPS
_audit_creation_date              2020-11-30 
_audit_creation_method            'lammps2cif' 
_symmetry_space_group_name_H-M    'P1' 
_symmetry_Int_Tables_number       1 
_symmetry_cell_setting            triclinic 
loop_ 
_symmetry_equiv_pos_as_xyz 
  x,y,z 
_cell_length_a                    22.965392365693834 
_cell_length_b                    22.970057610422508 
_cell_length_c                    22.94207682665057 
_cell_angle_alpha                 90.10691262922013 
_cell_angle_beta                  89.6342268542312 
_cell_angle_gamma                 90.08074292404493 
loop_ 
_atom_site_label 
_atom_site_type_symbol 
_atom_site_fract_x 
_atom_site_fract_y 
_atom_site_fract_z 
_atom_site_charge 
C1          C  0.30582733  0.32329418  0.17460588    -0.02690
C2          C  0.30660762  0.15475386  0.36669875    -0.02690
C3          C  0.15520147  0.14623695  0.19215556    -0.02690
C4          C  0.14657016  0.31893102  0.35594441    -0.02690
C5          C  0.30546261  0.14690504  0.68309448    -0.02690
C6          C  0.16470604  0.14977929  0.85235712    -0.02690
C7          C  0.15287925  0.31312079  0.67578176    -0.02690
C8          C  0.31315017  0.32221906  0.85377590    -0.02690
C9          C  0.35286134  0.36466636  0.88519230     0.42250
N10         N  0.37959885  0.42810155  0.94895095     0.01140
C11         C  0.62725278  0.59769841  0.94968861    -0.06730
H12         H  0.65789720  0.37404265  0.98039115     0.06640
C13         C  0.55322506  0.37792053  0.16060153    -0.07080
Co14       Co  0.48572876  0.49300037  0.91149500     0.74180
N15         N  0.58643420  0.42802082  0.95788532    -0.26260
Co16       Co  0.58749326  0.49013633  0.02291769     0.74070
C17         C  0.61049151  0.35497742  0.14304838     0.42360
N18         N  0.41331134  0.42250396  0.12036020     0.00760
N19         N  0.58603597  0.42519576  0.08619499     0.00860
N20         N  0.56540410  0.59233871  0.87430546    -0.47110
H21         H  0.42635202  0.39602934  0.82284232     0.06620
N22         N  0.54949043  0.42820328  0.91428227     0.01150
N23         N  0.58506890  0.55076315  0.08896288     0.00890
C24         C  0.61174080  0.61368335  0.15211256     0.42490
N25         N  0.37655151  0.42432837  0.07675686    -0.25720
C26         C  0.41051439  0.59954711  0.87604610    -0.06640
N27         N  0.33913965  0.38886091  0.93727212    -0.46820
N28         N  0.62707780  0.58798495  0.10154949    -0.47050
C29         C  0.35366982  0.62330169  0.89346095     0.42270
N30         N  0.55151293  0.55458638  0.91563083     0.01140
N31         N  0.37607937  0.55031176  0.08217376    -0.25740
N32         N  0.41934511  0.43186314  0.90771855    -0.26230
N33         N  0.41351359  0.54868894  0.12548059     0.00780
H34         H  0.29831537  0.59942619  0.06738755     0.06670
H35         H  0.53316895  0.59214212  0.21162180     0.06700
N36         N  0.58843876  0.55518763  0.95928032    -0.26280
N37         N  0.54286143  0.42198164  0.12404941    -0.25890
N38         N  0.37880831  0.55486992  0.95231379     0.01140
C39         C  0.60779852  0.35677609  0.89571580     0.42540
C40         C  0.33777964  0.38194379  0.08320349    -0.07150
N41         N  0.54394195  0.54843056  0.12929094    -0.25890
H42         H  0.52637478  0.36709873  0.19784675     0.06690
N43         N  0.56147766  0.38701588  0.87535520    -0.47120
H44         H  0.30242688  0.37405580  0.05370334     0.06670
C45         C  0.35216975  0.61487472  0.15048844     0.42370
C46         C  0.40475778  0.39587627  0.86443937    -0.06640
Co47       Co  0.37686080  0.48945876  0.01510868     0.73820
N48         N  0.39936399  0.38179300  0.15890081    -0.46830
C49         C  0.61148640  0.62343412  0.89343415     0.42640
N50         N  0.33670875  0.59246919  0.94081587    -0.46820
Co51       Co  0.47825203  0.48535415  0.12618657     0.73890
C52         C  0.55704035  0.58667639  0.17124083    -0.07150
C53         C  0.62304185  0.38398003  0.95099081    -0.06710
N54         N  0.42156573  0.55695345  0.91382696    -0.26240
N55         N  0.62781185  0.38700759  0.09678838    -0.47000
H56         H  0.66499434  0.60634907  0.97630585     0.06650
C57         C  0.33632805  0.59100458  0.09360784    -0.07130
Cl58       Cl  0.48210157  0.48994135  0.01897636    -0.50130
C59         C  0.35187187  0.35371391  0.13828061     0.42400
H60         H  0.43720209  0.60921821  0.83859499     0.06610
N61         N  0.39981384  0.58532660  0.16812862    -0.46840
C62         C  0.31002229  0.64469457  0.19118535    -0.02690
C63         C  0.15090350  0.81686147  0.18170039    -0.02690
C64         C  0.14443998  0.65020322  0.34073840    -0.02690
C65         C  0.30957988  0.83306430  0.34372027    -0.02690
C66         C  0.35360784  0.11955869  0.64746606     0.42250
N67         N  0.38224078  0.05272444  0.58792572     0.01140
C68         C  0.63155466  0.88694910  0.58652909    -0.06730
H69         H  0.67484504  0.09221273  0.56312703     0.06640
C70         C  0.55731395  0.09764149  0.37176064    -0.07080
Co71       Co  0.48872430  0.98998257  0.62537543     0.74180
N72         N  0.59225542  0.05141993  0.57843024    -0.26260
Co73       Co  0.58918870  0.98970845  0.51257645     0.74070
C74         C  0.61311384  0.12210309  0.39136266     0.42360
N75         N  0.41431562  0.05614621  0.41539518     0.00760
N76         N  0.58633700  0.05365099  0.44926542     0.00860
N77         N  0.56784142  0.88836919  0.66162691    -0.47110
H78         H  0.43124269  0.10145411  0.70854880     0.06620
N79         N  0.55484451  0.05293790  0.62225056     0.01150
N80         N  0.58586831  0.92795514  0.44662049     0.00890
C81         C  0.61235956  0.86377910  0.38394738     0.42490
N82         N  0.37908419  0.05570514  0.46074929    -0.25720
C83         C  0.41449224  0.88410450  0.66381454    -0.06640
N84         N  0.34031003  0.09050829  0.59836938    -0.46820
N85         N  0.62768530  0.89031660  0.43400706    -0.47050
C86         C  0.35993637  0.85676418  0.64583887     0.42270
N87         N  0.55324943  0.92614857  0.62053008     0.01140
N88         N  0.37521559  0.92882025  0.45553284    -0.25740
N89         N  0.42292855  0.05313509  0.62810003    -0.26230
N90         N  0.41325827  0.92903785  0.41220647     0.00780
H91         H  0.29318920  0.88541903  0.46808904     0.06670
H92         H  0.53361828  0.88423331  0.32534916     0.06700
N93         N  0.59048758  0.92644387  0.57661552    -0.26280
N94         N  0.54472696  0.05529212  0.41000627    -0.25890
N95         N  0.38179689  0.92616995  0.58668862     0.01140
C96         C  0.62235328  0.11358452  0.64601763     0.42540
C97         C  0.34328900  0.10079743  0.45708989    -0.07150
N98         N  0.54459254  0.92938157  0.40685285    -0.25890
H99         H  0.53225163  0.10730744  0.33330301     0.06690
N100        N  0.57189641  0.08877767  0.66447140    -0.47120
H101        H  0.31048983  0.11135207  0.48903504     0.06670
C102        C  0.34848217  0.86591209  0.38602261     0.42370
C103        C  0.40840922  0.09360268  0.66820700    -0.06640
Co104      Co  0.37881406  0.99049726  0.52278964     0.73820
N105        N  0.40080589  0.09778819  0.37763845    -0.46830
C106        C  0.61656973  0.86097497  0.64276030     0.42640
N107        N  0.34164160  0.88628856  0.59832511    -0.46820
Co108      Co  0.47905580  0.99240232  0.40970051     0.73890
C109        C  0.55765167  0.89050073  0.36523023    -0.07150
C110        C  0.63574101  0.08808832  0.58931338    -0.06710
N111        N  0.42403578  0.92657726  0.62533026    -0.26240
N112        N  0.62808060  0.09186583  0.43911309    -0.47000
H113        H  0.67033618  0.88107210  0.56020247     0.06650
C114        C  0.33282092  0.89062408  0.44299917    -0.07130
Cl115      Cl  0.48397414  0.99033008  0.51758160    -0.50130
C116        C  0.35585833  0.12848450  0.40127444     0.42400
H117        H  0.44139161  0.87563763  0.70112711     0.06610
N118        N  0.39836663  0.89303746  0.36948865    -0.46840
C119        C  0.65422726  0.32873530  0.85825255    -0.02690
C120        C  0.81110446  0.32407848  0.68189273    -0.02690
C121        C  0.66802825  0.14455384  0.68213268    -0.02690
C122        C  0.82171074  0.16145622  0.85572830    -0.02690
C123        C  0.31100062  0.65230018  0.85276885    -0.02690
C124        C  0.31997729  0.82154245  0.68446335    -0.02690
C125        C  0.16512753  0.65040370  0.68282673    -0.02690
C126        C  0.15735224  0.83581067  0.84145327    -0.02690
C127        C  0.65258275  0.82615738  0.34809892    -0.02690
C128        C  0.80529644  0.65084942  0.36094287    -0.02690
C129        C  0.65333185  0.64696946  0.18949403    -0.02690
C130        C  0.80981617  0.83015177  0.18247811    -0.02690
C131        C  0.65530033  0.65179239  0.85336350    -0.02690
C132        C  0.80968435  0.65228207  0.68981930    -0.02690
C133        C  0.66209223  0.83180196  0.67997983    -0.02690
C134        C  0.81793361  0.83442469  0.84491807    -0.02690
C135        C  0.11343129  0.85443935  0.14295376     0.42250
N136        N  0.04836735  0.91745580  0.12016507     0.01140
C137        C  0.87750559  0.92885195  0.87498521    -0.06730
H138        H  0.09579907  0.95494854  0.83245414     0.06640
C139        C  0.10054947  0.13385660  0.94975228    -0.07080
Co140      Co  0.98546833  0.88413142  0.01130307     0.74180
N141        N  0.04724154  0.93242095  0.90832311    -0.26260
Co142      Co  0.98599966  0.99864701  0.91345952     0.74070
C143        C  0.12325731  0.11664226  0.89207444     0.42360
N144        N  0.05435893  0.08999926  0.08947025     0.00760
N145        N  0.05156175  0.06109570  0.91591286     0.00860
N146        N  0.88281214  0.85053150  0.93317104    -0.47110
H147        H  0.09712970  0.80364775  0.05742412     0.06620
N148        N  0.04811130  0.88786115  0.94438782     0.01150
N149        N  0.92537298  0.06478924  0.91948004     0.00890
C150        C  0.85890965  0.12620884  0.89655573     0.42490
N151        N  0.05192595  0.04630370  0.12638644    -0.25720
C152        C  0.88104704  0.84290582  0.08954638    -0.06640
N153        N  0.08529553  0.90266504  0.16166476    -0.46820
N154        N  0.88589794  0.07689805  0.87976430    -0.47050
C155        C  0.85861452  0.85816695  0.14770563     0.42270
N156        N  0.92187330  0.89041705  0.94757003     0.01140
N157        N  0.92525774  0.05100247  0.12648155    -0.25740
N158        N  0.04875285  0.88065866  0.07598869    -0.26230
N159        N  0.92862093  0.09653761  0.09156771     0.00780
H160        H  0.86823445  0.02887430  0.19737935     0.06670
H161        H  0.88114156  0.18388121  0.97628696     0.06700
N162        N  0.92095011  0.93572357  0.91259714    -0.26280
N163        N  0.05537285  0.09800229  0.95979577    -0.25890
N164        N  0.92368723  0.92009026  0.12149307     0.01140
C165        C  0.11418571  0.86848338  0.87997687     0.42540
C166        C  0.09374179  0.05288059  0.16575989    -0.07150
N167        N  0.92797340  0.10417773  0.96116467    -0.25890
H168        H  0.11249815  0.17051795  0.97682045     0.06690
N169        N  0.08706876  0.84788478  0.92857476    -0.47120
H170        H  0.10098967  0.02330686  0.20111282     0.06670
C171        C  0.85874943  0.11770561  0.15095203     0.42370
C172        C  0.08914869  0.84008898  0.08572369    -0.06640
Co173      Co  0.98705128  0.98387480  0.12448976     0.73820
N174        N  0.09519848  0.12815224  0.10306840    -0.46830
C175        C  0.85293996  0.87138171  0.88712628     0.42640
N176        N  0.88689134  0.90694190  0.16414402    -0.46820
Co177      Co  0.99180465  0.09858780  0.02562171     0.73890
C178        C  0.88776953  0.14511970  0.95043660    -0.07150
C179        C  0.08766593  0.92467913  0.86721669    -0.06710
N180        N  0.92243021  0.88244294  0.07802751    -0.26240
N181        N  0.09032191  0.07137590  0.87421766    -0.47000
H182        H  0.86648948  0.95944249  0.84171093     0.06650
C183        C  0.88091997  0.05910562  0.16351320    -0.07130
Cl184      Cl  0.98745758  0.99121944  0.01882314    -0.50130
C185        C  0.12262527  0.10748512  0.15073854     0.42400
H186        H  0.87172288  0.80548530  0.06276239     0.06610
N187        N  0.89002226  0.13764089  0.10488039    -0.46840
C188        C  0.65600971  0.15921523  0.35774712    -0.02690
C189        C  0.80798594  0.14888550  0.18078440    -0.02690
C190        C  0.64989061  0.31478697  0.17756498    -0.02690
C191        C  0.80716450  0.32355287  0.36322907    -0.02690
C192        C  0.85164128  0.36343437  0.39050985     0.42250
N193        N  0.91326830  0.38752038  0.45677430     0.01140
C194        C  0.91171874  0.63257886  0.63310667    -0.06730
H195        H  0.92794281  0.68494839  0.41613058     0.06640
C196        C  0.12967508  0.56103773  0.41531820    -0.07080
Co197      Co  0.87799235  0.49554017  0.51971963     0.74180
N198        N  0.92252914  0.60219516  0.46069823    -0.26260
Co199      Co  0.98908096  0.59866983  0.52472601     0.74070
C200        C  0.11487622  0.61809475  0.39112289     0.42360
N201        N  0.08603901  0.42173951  0.45583511     0.00760
N202        N  0.05505358  0.59656792  0.46084017     0.00860
N203        N  0.83664742  0.57058831  0.62102810    -0.47110
H204        H  0.79787091  0.44632135  0.40771894     0.06620
N205        N  0.88354371  0.56004777  0.45807692     0.01150
N206        N  0.05517957  0.59260582  0.58783093     0.00890
C207        C  0.11940718  0.61279756  0.65355625     0.42490
N208        N  0.04194458  0.38513432  0.45519015    -0.25720
C209        C  0.83254390  0.41911550  0.62137374    -0.06640
N210        N  0.89887211  0.34514628  0.42018290    -0.46820
N211        N  0.07075402  0.63262293  0.62674561    -0.47050
C212        C  0.85058719  0.36503469  0.64929292     0.42270
N213        N  0.87954604  0.55942108  0.58395781     0.01140
N214        N  0.04368721  0.38140892  0.58166528    -0.25740
N215        N  0.87637271  0.43120033  0.45582407    -0.26230
N216        N  0.08706612  0.41900182  0.58197130     0.00780
H217        H  0.02880797  0.30082154  0.62604181     0.06670
H218        H  0.17240850  0.53116541  0.62994767     0.06700
N219        N  0.92308520  0.59659087  0.58835516    -0.26280
N220        N  0.09165999  0.55232356  0.45878444    -0.25890
N221        N  0.91339495  0.38872185  0.58358675     0.01140
C222        C  0.85395763  0.62021978  0.39281577     0.42540
C223        C  0.04942342  0.34805383  0.41113172    -0.07150
N224        N  0.09254864  0.54903163  0.58531488    -0.25890
H225        H  0.16409497  0.53123410  0.40373908     0.06690
N226        N  0.84254040  0.56945944  0.41945579    -0.47120
H227        H  0.01839025  0.31548702  0.39919532     0.06670
C228        C  0.11186436  0.35386185  0.64457230     0.42370
C229        C  0.83632547  0.42033087  0.41519120    -0.06640
Co230      Co  0.97802203  0.38497157  0.51955331     0.73820
N231        N  0.12616713  0.40857380  0.41619833    -0.46830
C232        C  0.85278559  0.61668727  0.65364205     0.42640
N233        N  0.90041923  0.34819208  0.62245705    -0.46820
Co234      Co  0.09030671  0.48555434  0.52038689     0.73890
C235        C  0.13391505  0.55773574  0.62503345    -0.07150
C236        C  0.90676379  0.64325305  0.42166282    -0.06710
N237        N  0.87419482  0.43048035  0.58202358    -0.26240
N238        N  0.06750668  0.63693010  0.42129230    -0.47000
H239        H  0.93980237  0.66764456  0.64629166     0.06650
C240        C  0.05514969  0.33909161  0.61988587    -0.07130
Cl241      Cl  0.98406241  0.49148900  0.52122925    -0.50130
C242        C  0.10635733  0.36185538  0.38603089     0.42400
H243        H  0.79303488  0.44400618  0.62755413     0.06610
N244        N  0.12931750  0.40344584  0.61779743    -0.46840
C245        C  0.71238052  0.37732874  0.32232825    -0.26520
C246        C  0.77105960  0.36041861  0.31648735    -0.14590
C247        C  0.79241912  0.36736984  0.25847503     0.36030
C248        C  0.75364096  0.36059361  0.21137956    -0.25970
C249        C  0.69255049  0.35451114  0.21912763    -0.15210
C250        C  0.67565949  0.38216815  0.27292581     0.37120
N251        N  0.63232257  0.42715912  0.27499859    -0.89460
H252        H  0.69798016  0.39612522  0.36262712     0.18230
H253        H  0.77285032  0.36609641  0.16979893     0.18220
N254        N  0.85280672  0.37815743  0.24568782    -0.88490
H255        H  0.60203989  0.41901056  0.30813067     0.35600
H256        H  0.61149542  0.43191919  0.23527697     0.40700
H257        H  0.87561984  0.38677921  0.28384938     0.40320
H258        H  0.85507067  0.41675640  0.22169007     0.35210
C259        C  0.78623120  0.23777903  0.11454031    -0.26520
C260        C  0.76948564  0.18072034  0.13192040    -0.14590
C261        C  0.71040115  0.16890384  0.11748439     0.36030
C262        C  0.66979691  0.21603007  0.11616066    -0.25970
C263        C  0.68616844  0.27385553  0.13080437    -0.15210
C264        C  0.74466606  0.28376566  0.11143122     0.37120
N265        N  0.75784744  0.33165771  0.07336573    -0.89460
H266        H  0.83199685  0.24820158  0.10953494     0.18230
H267        H  0.62734327  0.20847713  0.09867130     0.18220
N268        N  0.69395951  0.11491981  0.09090802    -0.88490
H269        H  0.80107566  0.34468326  0.07932523     0.35600
H270        H  0.73172274  0.36738670  0.08329960     0.40700
H271        H  0.72868081  0.08553087  0.09154638     0.40320
H272        H  0.65836853  0.09766858  0.11363323     0.35210
C273        C  0.88089312  0.22051470  0.24259769    -0.26520
C274        C  0.82558696  0.20017799  0.22260604    -0.14590
C275        C  0.77830381  0.22290765  0.25245444     0.36030
C276        C  0.78356072  0.24032150  0.30756293    -0.25970
C277        C  0.83079136  0.27156526  0.32492673    -0.15210
C278        C  0.88321341  0.26066601  0.29190415     0.37120
N279        N  0.93697641  0.28693490  0.30877147    -0.89460
H280        H  0.92039748  0.20616882  0.22102737     0.18230
H281        H  0.74283156  0.24683198  0.32840256     0.18220
N282        N  0.72208335  0.22398020  0.22934728    -0.88490
H283        H  0.96959891  0.27552575  0.27899332     0.35600
H284        H  0.94832727  0.26770566  0.34827457     0.40700
H285        H  0.69691889  0.25067204  0.25495179     0.40320
H286        H  0.70382934  0.18359526  0.23154924     0.35210
C287        C  0.59955317  0.17794414  0.25673966    -0.26520
C288        C  0.61901932  0.19780294  0.31220405    -0.14590
C289        C  0.59501450  0.25377673  0.32318975     0.36030
C290        C  0.59187198  0.29388116  0.27628730    -0.25970
C291        C  0.60648062  0.27688178  0.21884091    -0.15210
C292        C  0.59037147  0.21771828  0.21038661     0.37120
N293        N  0.54673820  0.20289171  0.16829812    -0.89460
H294        H  0.58624186  0.13393180  0.24982103     0.18230
H295        H  0.57105068  0.33504603  0.28329380     0.18220
N296        N  0.55475508  0.26089579  0.37059664    -0.88490
H297        H  0.55849280  0.16428429  0.14713027     0.35600
H298        H  0.54238398  0.23620382  0.13760869     0.40700
H299        H  0.51296512  0.25279412  0.35468291     0.40320
H300        H  0.55560019  0.30446172  0.38398096     0.35210
C301        C  0.78690021  0.23682400  0.43375138    -0.26520
C302        C  0.77074142  0.29373532  0.41565438    -0.14590
C303        C  0.71078472  0.30381842  0.42689145     0.36030
C304        C  0.67101697  0.25668488  0.42099006    -0.25970
C305        C  0.68990231  0.20010948  0.40546933    -0.15210
C306        C  0.74593289  0.18989798  0.43103062     0.37120
N307        N  0.75524182  0.14107010  0.46911193    -0.89460
H308        H  0.83239333  0.22692305  0.44067810     0.18230
H309        H  0.62803255  0.26174882  0.43877254     0.18220
N310        N  0.69334026  0.35255530  0.46212872    -0.88490
H311        H  0.79886105  0.12827850  0.46624711     0.35600
H312        H  0.73064730  0.10538145  0.45594859     0.40700
H313        H  0.72580595  0.38446590  0.46167743     0.40320
H314        H  0.65547447  0.37060574  0.44480379     0.35210
C315        C  0.75939453  0.10961711  0.33091631    -0.26520
C316        C  0.69905244  0.11601933  0.32123905    -0.14590
C317        C  0.68281669  0.08233738  0.27126319     0.36030
C318        C  0.72157657  0.08040025  0.22189276    -0.25970
C319        C  0.77850261  0.10380808  0.22614906    -0.15210
C320        C  0.79937651  0.10114141  0.28497965     0.37120
N321        N  0.86015843  0.09890403  0.29997458    -0.89460
H322        H  0.77828850  0.11052490  0.37262690     0.18230
H323        H  0.70887614  0.05783748  0.18306759     0.18220
N324        N  0.63148114  0.04662861  0.27269450    -0.88490
H325        H  0.87001939  0.13513328  0.32576087     0.35600
H326        H  0.88703457  0.10173719  0.26360083     0.40700
H327        H  0.63718284  0.01555114  0.30539363     0.40320
H328        H  0.62732992  0.02376444  0.23348436     0.35210
C329        C  0.73263367  0.90461915  0.81186288    -0.26520
C330        C  0.78729251  0.88024481  0.79971674    -0.14590
C331        C  0.80290614  0.89211906  0.73983561     0.36030
C332        C  0.75909077  0.88981618  0.69644275    -0.25970
C333        C  0.70052446  0.88026375  0.71184367    -0.15210
C334        C  0.68732741  0.90031364  0.77020353     0.37120
N335        N  0.62943431  0.91351066  0.78981336    -0.89460
H336        H  0.72379240  0.92199641  0.85480104     0.18230
H337        H  0.77051736  0.89853953  0.65169808     0.18220
N338        N  0.85458443  0.92421894  0.72471717    -0.88490
H339        H  0.61734807  0.88240793  0.82077847     0.35600
H340        H  0.59990521  0.91076246  0.75605670     0.40700
H341        H  0.88528809  0.92297458  0.75779863     0.40320
H342        H  0.87326767  0.90602275  0.68722117     0.35210
C343        C  0.70538766  0.68131669  0.64097813    -0.26520
C344        C  0.76691408  0.68808379  0.64578914    -0.14590
C345        C  0.78524472  0.73729210  0.61192573     0.36030
C346        C  0.75034481  0.78879886  0.61382002    -0.25970
C347        C  0.69296553  0.78624040  0.63634574    -0.15210
C348        C  0.66862599  0.72971503  0.63092632     0.37120
N349        N  0.60660078  0.72263246  0.62693064    -0.89460
H350        H  0.68328899  0.64124743  0.64603303     0.18230
H351        H  0.76554074  0.82768120  0.59235843     0.18220
N352        N  0.82010171  0.72856797  0.56037670    -0.88490
H353        H  0.59544783  0.67850404  0.62636089     0.35600
H354        H  0.59392006  0.73971859  0.58677838     0.40700
H355        H  0.85131506  0.69674769  0.56728744     0.40320
H356        H  0.84226982  0.76700157  0.55005983     0.35210
C357        C  0.86556516  0.68697907  0.78603259    -0.26520
C358        C  0.84679514  0.69852098  0.72857988    -0.14590
C359        C  0.87074080  0.75366424  0.71068721     0.36030
C360        C  0.87936676  0.79805026  0.75303290    -0.25970
C361        C  0.86266644  0.79061242  0.81158232    -0.15210
C362        C  0.87373059  0.73173451  0.82769609     0.37120
N363        N  0.91094711  0.71811861  0.87567189    -0.89460
H364        H  0.88609660  0.64615998  0.79522022     0.18230
H365        H  0.90632806  0.83431089  0.74172294     0.18220
N366        N  0.89399041  0.76353843  0.65369981    -0.88490
H367        H  0.89248709  0.68463355  0.90037624     0.35800
H368        H  0.91938800  0.75452164  0.90136820     0.40700
H369        H  0.93895322  0.76951802  0.65763104     0.40320
H370        H  0.87744801  0.80320693  0.63888557     0.35210
C371        C  0.67874204  0.70465711  0.76847074    -0.26520
C372        C  0.63089585  0.68870987  0.80061562    -0.14590
C373        C  0.58001309  0.72497275  0.78996874     0.36030
C374        C  0.58520829  0.77275588  0.74889974    -0.25970
C375        C  0.64165997  0.79137329  0.73065320    -0.15210
C376        C  0.68711766  0.76039924  0.75475497     0.37120
N377        N  0.74482445  0.78087657  0.75621072    -0.89460
H378        H  0.71878431  0.68275580  0.77296144     0.18230
H379        H  0.54692164  0.79589908  0.73455124     0.18220
N380        N  0.52511130  0.71763374  0.81902173    -0.88490
H381        H  0.76808061  0.75494462  0.78423121     0.35600
H382        H  0.76425076  0.77477159  0.71664964     0.40700
H383        H  0.52577663  0.68330305  0.84806901     0.40320
H384        H  0.49416142  0.70778112  0.78740951     0.35210
C385        C  0.67686555  0.57876644  0.76763410    -0.26520
C386        C  0.69231589  0.59890093  0.82440411    -0.14590
C387        C  0.75202291  0.58763668  0.83548795     0.36030
C388        C  0.79244578  0.59084598  0.78846012    -0.25970
C389        C  0.77481974  0.60551376  0.73134825    -0.15210
C390        C  0.71876451  0.58022133  0.72092650     0.37120
N391        N  0.70978087  0.54273528  0.67142076    -0.89460
H392        H  0.63162977  0.57019828  0.75769150     0.18230
H393        H  0.83565647  0.57394301  0.79493154     0.18220
N394        N  0.76863306  0.55465785  0.88578760    -0.88490
H395        H  0.66533785  0.54136706  0.66182157     0.35600
H396        H  0.73045062  0.55968291  0.63461480     0.40700
H397        H  0.73549149  0.55540032  0.91711143     0.40320
H398        H  0.80600699  0.57317662  0.90385176     0.35210
C399        C  0.74894027  0.69411046  0.90821800    -0.26520
C400        C  0.69096105  0.69975931  0.88955181    -0.14590
C401        C  0.67039080  0.75821158  0.89485332     0.36030
C402        C  0.70993116  0.80500851  0.88698310    -0.25970
C403        C  0.77106390  0.79584533  0.88282741    -0.15210
C404        C  0.78562264  0.74392886  0.91336155     0.37120
N405        N  0.82697310  0.74646605  0.95980270    -0.89460
H406        H  0.76197500  0.65426755  0.92834674     0.18230
H407        H  0.69153983  0.84737004  0.89153258     0.18220
N408        N  0.61161956  0.77134816  0.91187751    -0.88490
H409        H  0.82981718  0.70617674  0.98075897     0.35600
H410        H  0.80993220  0.77524397  0.99080311     0.40700
H411        H  0.58754041  0.73339406  0.91844592     0.40320
H412        H  0.59213216  0.79594571  0.87918103     0.35210
C413        C  0.75820668  0.67614474  0.14283449    -0.26520
C414        C  0.69760554  0.68503244  0.14780599    -0.14590
C415        C  0.68237559  0.73671085  0.11740940     0.36030
C416        C  0.71981964  0.78648639  0.12206046    -0.25970
C417        C  0.77724313  0.78156584  0.14348943    -0.15210
C418        C  0.79826631  0.72266276  0.14077061     0.37120
N419        N  0.85899738  0.70764125  0.13811367    -0.89460
H420        H  0.77585674  0.63401960  0.13585818     0.18230
H421        H  0.70812341  0.82565160  0.09969829     0.18220
N422        N  0.64797055  0.73125019  0.06545276    -0.88490
H423        H  0.86868439  0.68202073  0.17438211     0.35600
H424        H  0.88571674  0.74403159  0.13997817     0.40700
H425        H  0.61315178  0.70285047  0.07255682     0.40320
H426        H  0.63070131  0.77172287  0.05409988     0.35210
C427        C  0.78807701  0.58795996  0.26666750    -0.26520
C428        C  0.77000062  0.60153746  0.32446797    -0.14590
C429        C  0.71147191  0.58288153  0.33486219     0.36030
C430        C  0.67052383  0.58416249  0.28800419    -0.25970
C431        C  0.68786647  0.59939830  0.23044013    -0.15210
C432        C  0.74651275  0.58095127  0.22108875     0.37120
N433        N  0.75879766  0.53874068  0.17628989    -0.89460
H434        H  0.83407968  0.58576047  0.25629442     0.18230
H435        H  0.62714664  0.56762447  0.29543133     0.18220
N436        N  0.69655040  0.55038595  0.38607633    -0.88490
H437        H  0.80098264  0.54518350  0.16011035     0.35600
H438        H  0.72983131  0.54397956  0.14174568     0.40700
H439        H  0.73322813  0.54549720  0.41225641     0.40320
H440        H  0.68518114  0.50829669  0.37290589     0.35210
C441        C  0.88036017  0.72028046  0.29734463    -0.26520
C442        C  0.82513977  0.69648692  0.31399985    -0.14590
C443        C  0.77751235  0.72393118  0.29097737     0.36030
C444        C  0.78000070  0.77428503  0.26313942    -0.25970
C445        C  0.82930641  0.79319501  0.23607545    -0.15210
C446        C  0.88281545  0.76839300  0.25607358     0.37120
N447        N  0.93738261  0.79054772  0.23537435    -0.89460
H448        H  0.92003587  0.70162869  0.31406784     0.18230
H449        H  0.73786191  0.78921216  0.24907738     0.18220
N450        N  0.72290539  0.69840981  0.29345390    -0.88490
H451        H  0.97124370  0.76797128  0.25534629     0.35600
H452        H  0.94065892  0.83372666  0.24941627     0.40700
H453        H  0.71319601  0.69860568  0.25080447     0.40320
H454        H  0.69526078  0.72658939  0.31206249     0.35210
C455        C  0.59656693  0.79381664  0.25111421    -0.26520
C456        C  0.61039143  0.78393511  0.30988911    -0.14590
C457        C  0.58812077  0.72818317  0.32643720     0.36030
C458        C  0.59326586  0.68142507  0.28576885    -0.25970
C459        C  0.61370498  0.69149084  0.22787114    -0.15210
C460        C  0.59788798  0.74831266  0.20979027     0.37120
N461        N  0.56851366  0.75702144  0.15590226    -0.89460
H462        H  0.57501602  0.83344817  0.23897507     0.18230
H463        H  0.57399185  0.64037722  0.29729408     0.18220
N464        N  0.54560339  0.72264958  0.37227769    -0.88490
H465        H  0.58319532  0.79644280  0.13840704     0.35600
H466        H  0.52486358  0.76399065  0.16585567     0.40700
H467        H  0.54419358  0.76041054  0.39773139     0.40320
H468        H  0.55621146  0.68708592  0.39848453     0.35210
C469        C  0.67183536  0.88720797  0.24917258    -0.26520
C470        C  0.69023817  0.86909116  0.30531423    -0.14590
C471        C  0.74561573  0.89478623  0.31645158     0.36030
C472        C  0.78691236  0.89993457  0.26954905    -0.25970
C473        C  0.77163355  0.88151043  0.21202134    -0.15210
C474        C  0.71165062  0.89121607  0.20150842     0.37120
N475        N  0.69353054  0.92166420  0.15021850    -0.89460
H476        H  0.62847073  0.90406462  0.24373681     0.18230
H477        H  0.83201300  0.90911324  0.27961756     0.18220
N478        N  0.75382376  0.92863681  0.36817727    -0.88490
H479        H  0.65768880  0.90009971  0.13241892     0.35600
H480        H  0.72723791  0.92224416  0.11933817     0.40700
H481        H  0.72303129  0.96211968  0.36809430     0.40320
H482        H  0.79482587  0.94851156  0.36754750     0.35210
C483        C  0.67258358  0.73507472  0.41826349    -0.26520
C484        C  0.69223062  0.78804051  0.39329532    -0.14590
C485        C  0.75148313  0.79791356  0.40892154     0.36030
C486        C  0.78971859  0.74927203  0.41533538    -0.25970
C487        C  0.76971937  0.69122726  0.40678730    -0.15210
C488        C  0.71013526  0.68567966  0.42303880     0.37120
N489        N  0.69306752  0.63951145  0.46114093    -0.89460
H490        H  0.62970720  0.73297307  0.43673360     0.18230
H491        H  0.83595634  0.75737390  0.41959541     0.18220
N492        N  0.76445890  0.84793334  0.44359926    -0.88490
H493        H  0.69226598  0.65617858  0.50358972     0.35600
H494        H  0.65020093  0.62785550  0.45124307     0.40700
H495        H  0.75397981  0.83793638  0.48684339     0.40320
H496        H  0.80926733  0.85608371  0.44183894     0.35210
C497        C  0.08571472  0.70688747  0.75304384    -0.26520
C498        C  0.14105356  0.69846202  0.72413289    -0.14590
C499        C  0.18085895  0.74150380  0.73742578     0.36030
C500        C  0.15812470  0.79510048  0.74257521    -0.25970
C501        C  0.12493200  0.80122730  0.79149760    -0.15210
C502        C  0.08013909  0.75669779  0.79309135     0.37120
N503        N  0.03362779  0.75998597  0.83453971    -0.89460
H504        H  0.05146090  0.67476101  0.74916038     0.18230
H505        H  0.13394035  0.80880551  0.70446647     0.18220
N506        N  0.23923922  0.72975495  0.75281236    -0.88490
H507        H  0.00777824  0.72297528  0.82974734     0.35600
H508        H  0.00813586  0.79597369  0.82364017     0.40700
H509        H  0.25623780  0.76651123  0.77320218     0.40320
H510        H  0.23573579  0.69987253  0.78587549     0.35210
C511        C  0.22309230  0.78959091  0.62410529    -0.26520
C512        C  0.28111701  0.77926092  0.64278163    -0.14590
C513        C  0.30015439  0.72417043  0.62053296     0.36030
C514        C  0.26088476  0.67635418  0.62189206    -0.25970
C515        C  0.20114872  0.68510768  0.63328954    -0.15210
C516        C  0.18367395  0.74231080  0.61576287     0.37120
N517        N  0.12587484  0.75427561  0.59606897    -0.89460
H518        H  0.20718537  0.83229842  0.61519191     0.18230
H519        H  0.27501635  0.63497704  0.60466321     0.18220
N520        N  0.34980616  0.72005581  0.58223195    -0.88490
H521        H  0.09575840  0.74313348  0.62836336     0.35600
H522        H  0.11810563  0.72824815  0.55950590     0.40700
H523        H  0.37615973  0.75698437  0.58554073     0.40320
H524        H  0.37407368  0.68299476  0.59230472     0.35210
C525        C  0.22950605  0.89392103  0.70669814    -0.26520
C526        C  0.28253434  0.86726060  0.72219542    -0.14590
C527        C  0.29984795  0.88979370  0.77669898     0.36030
C528        C  0.25821223  0.88976653  0.82246552    -0.25970
C529        C  0.19875633  0.88358037  0.80936287    -0.15210
C530        C  0.18714822  0.90575378  0.75144756     0.37120
N531        N  0.13156954  0.93003993  0.73624246    -0.89460
H532        H  0.22113078  0.90617228  0.66232516     0.18230
H533        H  0.26953157  0.90961496  0.86319770     0.18220
N534        N  0.34868836  0.92890846  0.77886782    -0.88490
H535        H  0.13023787  0.93907365  0.69166214     0.35600
H536        H  0.09866656  0.89965438  0.74389394     0.40700
H537        H  0.34049944  0.96327425  0.75023697     0.40320
H538        H  0.35227232  0.94732607  0.82041833     0.35210
C539        C  0.21837326  0.58736925  0.82710401    -0.26520
C540        C  0.27742913  0.60129445  0.81833867    -0.14590
C541        C  0.29532833  0.58033740  0.76333228     0.36030
C542        C  0.25850289  0.59125142  0.71528393    -0.25970
C543        C  0.20088878  0.61022223  0.72495941    -0.15210
C544        C  0.17875168  0.59417504  0.78074584     0.37120
N545        N  0.11780544  0.58514157  0.79028041    -0.89460
H546        H  0.20357148  0.57094297  0.86828711     0.18230
H547        H  0.27088846  0.57473339  0.67309557     0.18220
N548        N  0.33060965  0.52880292  0.76146920    -0.88490
H549        H  0.10461835  0.61200333  0.82473363     0.35600
H550        H  0.11198430  0.54206635  0.80375418     0.40700
H551        H  0.36484220  0.53291032  0.79088710     0.40320
H552        H  0.34904184  0.52401638  0.71996243     0.35210
C553        C  0.28305397  0.74771697  0.91517206    -0.26520
C554        C  0.26749048  0.69302429  0.89116174    -0.14590
C555        C  0.20670930  0.68444808  0.89843527     0.36030
C556        C  0.16951622  0.73120464  0.88504518    -0.25970
C557        C  0.19173235  0.78835567  0.87834321    -0.15210
C558        C  0.24462827  0.79608423  0.91003884     0.37120
N559        N  0.25313872  0.84469608  0.94843284    -0.89460
H560        H  0.32336977  0.75265460  0.93864562     0.18230
H561        H  0.12326341  0.72417937  0.88820084     0.18220
N562        N  0.18599529  0.64493075  0.94244187    -0.88490
H563        H  0.29427241  0.86272063  0.94077521     0.35600
H564        H  0.22095586  0.87618758  0.94242369     0.40700
H565        H  0.21796919  0.61441790  0.95296538     0.40320
H566        H  0.14884637  0.62342481  0.92741783     0.35210
C567        C  0.36774136  0.74812909  0.82726410    -0.26520
C568        C  0.34815503  0.69290231  0.80948643    -0.14590
C569        C  0.37047823  0.68020962  0.75229304     0.36030
C570        C  0.37730764  0.72639081  0.71246909    -0.25970
C571        C  0.35939407  0.78256274  0.72724520    -0.15210
C572        C  0.37356313  0.79385353  0.78663647     0.37120
N573        N  0.41445204  0.83879406  0.80038506    -0.89460
H574        H  0.38475424  0.75402771  0.87051125     0.18230
H575        H  0.40235281  0.71978940  0.67351891     0.18220
N576        N  0.40049001  0.62727375  0.73906553    -0.88490
H577        H  0.40634912  0.85322795  0.84295586     0.35600
H578        H  0.45605931  0.82039018  0.80013522     0.40700
H579        H  0.38790661  0.61414110  0.69730920     0.40320
H580        H  0.44498331  0.63638826  0.73598843     0.35210
C581        C  0.76378532  0.08596961  0.71199484    -0.26520
C582        C  0.70383738  0.09767858  0.72047095    -0.14590
C583        C  0.68711449  0.08753928  0.77994107     0.36030
C584        C  0.72743079  0.09830119  0.82525660    -0.25970
C585        C  0.78586799  0.11471973  0.81445879    -0.15210
C586        C  0.80459250  0.09161099  0.75896250     0.37120
N587        N  0.86171488  0.06752531  0.75207793    -0.89460
H588        H  0.77837484  0.06975302  0.67032620     0.18230
H589        H  0.71280953  0.08973342  0.86825517     0.18220
N590        N  0.62935004  0.06981800  0.79614479    -0.88490
H591        H  0.86823893  0.05292318  0.70934677     0.35600
H592        H  0.86392934  0.03095899  0.77857022     0.40700
H593        H  0.60457296  0.06067892  0.75954432     0.40320
H594        H  0.60955259  0.10384169  0.81912694     0.35210
C595        C  0.72132507  0.28969135  0.61548526    -0.26520
C596        C  0.78026111  0.28400209  0.63098429    -0.14590
C597        C  0.79993781  0.22743947  0.61328999     0.36030
C598        C  0.76223585  0.17824266  0.61999306    -0.25970
C599        C  0.70304941  0.18573768  0.63647552    -0.15210
C600        C  0.68162156  0.24248733  0.62128592     0.37120
N601        N  0.62085606  0.25429551  0.61312064    -0.89460
H602        H  0.70679379  0.32968927  0.59582800     0.18230
H603        H  0.77820135  0.13593954  0.60779870     0.18220
N604        N  0.85050834  0.22104246  0.57683169    -0.88490
H605        H  0.60745687  0.28260124  0.64625833     0.35600
H606        H  0.59582270  0.21665158  0.61670445     0.40700
H607        H  0.86496410  0.26193825  0.56319800     0.40320
H608        H  0.83822221  0.19929158  0.53890859     0.35210
C609        C  0.88344447  0.18973006  0.75986335    -0.26520
C610        C  0.86609685  0.20288549  0.81765061    -0.14590
C611        C  0.87644190  0.26339086  0.82761144     0.36030
C612        C  0.86514011  0.30391778  0.78278903    -0.25970
C613        C  0.85160415  0.28613473  0.72563934    -0.15210
C614        C  0.87803139  0.23114646  0.71366360     0.37120
N615        N  0.91890686  0.22745588  0.66665505    -0.89460
H616        H  0.91263860  0.15368527  0.75356748     0.18230
H617        H  0.87843555  0.34764195  0.79074741     0.18220
N618        N  0.91360832  0.28206013  0.87418606    -0.88490
H619        H  0.92645507  0.18367112  0.65648909     0.35600
H620        H  0.95803637  0.24490349  0.68172261     0.40700
H621        H  0.89537268  0.31926293  0.89305724     0.40320
H622        H  0.95186955  0.29816168  0.85546699     0.35210
C623        C  0.68735327  0.26367736  0.78799141    -0.26520
C624        C  0.63662291  0.27969377  0.81448071    -0.14590
C625        C  0.58682529  0.24420880  0.80119485     0.36030
C626        C  0.59115225  0.20246113  0.75373231    -0.25970
C627        C  0.64688206  0.18916160  0.72922247    -0.15210
C628        C  0.69336428  0.21774265  0.75411536     0.37120
N629        N  0.75071857  0.20285645  0.74099234    -0.89460
H630        H  0.72810774  0.28501796  0.79856456     0.18230
H631        H  0.55332233  0.17758548  0.74087142     0.18220
N632        N  0.53614721  0.24325585  0.83768930    -0.88490
H633        H  0.76294180  0.23607010  0.71670232     0.35600
H634        H  0.77392951  0.21077095  0.77761566     0.40700
H635        H  0.54162936  0.27027767  0.87371205     0.40320
H636        H  0.53197208  0.20112352  0.85436757     0.35210
C637        C  0.79453040  0.25743607  0.91571715    -0.26520
C638        C  0.77846821  0.20208728  0.89487365    -0.14590
C639        C  0.72148712  0.18920178  0.91630914     0.36030
C640        C  0.67947881  0.23477903  0.91698613    -0.25970
C641        C  0.69577272  0.29291978  0.90182312    -0.15210
C642        C  0.75501008  0.30475774  0.91455486     0.37120
N643        N  0.77363718  0.36125059  0.93352356    -0.89460
H644        H  0.83572246  0.26244323  0.93651442     0.18230
H645        H  0.63412009  0.22409448  0.92449326     0.18220
N646        N  0.71278362  0.14261271  0.95718958    -0.88490
H647        H  0.81797906  0.36122160  0.94333033     0.35600
H648        H  0.75199487  0.37166398  0.97203677     0.40700
H649        H  0.74720397  0.11289904  0.95527855     0.40320
H650        H  0.67358275  0.12128678  0.94825175     0.35210
C651        C  0.74022895  0.39829354  0.82112084    -0.26520
C652        C  0.68237993  0.37837970  0.81593270    -0.14590
C653        C  0.66414259  0.38170304  0.75620620     0.36030
C654        C  0.70516287  0.37097726  0.71087130    -0.25970
C655        C  0.76555375  0.36300054  0.72175163    -0.15210
C656        C  0.78038972  0.39556138  0.77328682     0.37120
N657        N  0.83021832  0.43334321  0.77552834    -0.89460
H658        H  0.75101318  0.42485671  0.85826121     0.18230
H659        H  0.68858635  0.37595646  0.66804637     0.18220
N660        N  0.60435315  0.38894379  0.74015000    -0.88490
H661        H  0.81461064  0.47576432  0.77905877     0.35600
H662        H  0.85392624  0.43198986  0.73679681     0.40700
H663        H  0.57964630  0.40360941  0.77521024     0.40320
H664        H  0.58798465  0.34866336  0.72678510     0.35210
C665        C  0.21329305  0.79089302  0.33584348    -0.26520
C666        C  0.25700974  0.80030282  0.37425277    -0.14590
C667        C  0.25196209  0.76041203  0.42324212     0.36030
C668        C  0.21240137  0.71041627  0.41778240    -0.25970
C669        C  0.18957285  0.69657510  0.36116926    -0.15210
C670        C  0.20771176  0.73506069  0.31852996     0.37120
N671        N  0.22726488  0.71730852  0.26289034    -0.89460
H672        H  0.17412321  0.80834770  0.35557422     0.18230
H673        H  0.20167613  0.68344395  0.45497034     0.18220
N674        N  0.27577144  0.77516711  0.47885680    -0.88490
H675        H  0.24386635  0.75345813  0.24092561     0.35600
H676        H  0.19159261  0.70261248  0.24003563     0.40700
H677        H  0.32097435  0.77491144  0.47640635     0.40320
H678        H  0.26378973  0.74331834  0.50896797     0.35210
C679        C  0.09262243  0.79185975  0.28228641    -0.26520
C680        C  0.10800680  0.77911785  0.22366776    -0.14590
C681        C  0.08077971  0.72595562  0.20704091     0.36030
C682        C  0.08095216  0.67831887  0.24694119    -0.25970
C683        C  0.09638531  0.68752288  0.30583750    -0.15210
C684        C  0.08336144  0.74592922  0.32339792     0.37120
N685        N  0.06565958  0.75877782  0.38227021    -0.89460
H686        H  0.08685750  0.83552640  0.29721884     0.18230
H687        H  0.06291586  0.63706227  0.23380289     0.18220
N688        N  0.04651182  0.72344051  0.15505343    -0.88490
H689        H  0.05720139  0.80325233  0.38690935     0.35600
H690        H  0.09974104  0.74940837  0.41049851     0.40700
H691        H  0.01461316  0.75569078  0.15757910     0.40320
H692        H  0.02477148  0.68350932  0.15237244     0.35210
C693        C  0.29471563  0.88282995  0.24005431    -0.26520
C694        C  0.28119791  0.88062785  0.29996778    -0.14590
C695        C  0.22413409  0.90471798  0.31003578     0.36030
C696        C  0.17944321  0.89214504  0.26842095    -0.25970
C697        C  0.19372338  0.86042514  0.21709708    -0.15210
C698        C  0.25006636  0.87846507  0.19797196     0.37120
N699        N  0.25600836  0.91423651  0.14692110    -0.89460
H700        H  0.33666280  0.89988403  0.22699436     0.18230
H701        H  0.13571171  0.90679440  0.27664049     0.18220
N702        N  0.20910981  0.93362207  0.36346368    -0.88490
H703        H  0.29416489  0.90290964  0.12457004     0.35600
H704        H  0.22039297  0.90881556  0.11929326     0.40700
H705        H  0.24641656  0.94115254  0.38796711     0.40320
H706        H  0.18148734  0.90652357  0.38755738     0.35210
C707        C  0.35011991  0.67920841  0.29681806    -0.26520
C708        C  0.34522875  0.68642093  0.23558351    -0.14590
C709        C  0.37346425  0.73849849  0.21794731     0.36030
C710        C  0.37094105  0.78821617  0.25493748    -0.25970
C711        C  0.34666536  0.78396492  0.31154018    -0.15210
C712        C  0.35342551  0.72734918  0.33478999     0.37120
N713        N  0.37752790  0.71831648  0.39151877    -0.89460
H714        H  0.36338509  0.63857773  0.31504436     0.18230
H715        H  0.39185218  0.82793959  0.24131648     0.18220
N716        N  0.40965207  0.73859672  0.16704756    -0.88490
H717        H  0.34753045  0.69583177  0.41733817     0.35600
H718        H  0.38839971  0.75789920  0.41098192     0.40700
H719        H  0.44318751  0.70872923  0.17388592     0.40320
H720        H  0.42815808  0.77972308  0.16085708     0.35210
C721        C  0.28354702  0.57764745  0.28086469    -0.26520
C722        C  0.27315055  0.59387958  0.22314037    -0.14590
C723        C  0.21589331  0.57605891  0.20786887     0.36030
C724        C  0.17015846  0.58630340  0.24813566    -0.25970
C725        C  0.18320166  0.60595503  0.30475459    -0.15210
C726        C  0.24032230  0.58955914  0.32341445     0.37120
N727        N  0.25525819  0.58742223  0.38383456    -0.89460
H728        H  0.32571767  0.56107928  0.29310712     0.18230
H729        H  0.12675251  0.57247153  0.23747257     0.18220
N730        N  0.20715754  0.53283285  0.16339236    -0.88490
H731        H  0.28998609  0.61583123  0.39087001     0.35600
H732        H  0.26997560  0.54537270  0.39292391     0.40700
H733        H  0.24347260  0.53080373  0.13587421     0.40320
H734        H  0.17099594  0.54396732  0.13836455     0.35210
C735        C  0.24616198  0.78340925  0.12288391    -0.26520
C736        C  0.18821713  0.77329461  0.14092358    -0.14590
C737        C  0.17189321  0.71554010  0.12559773     0.36030
C738        C  0.21320958  0.67116708  0.13397117    -0.25970
C739        C  0.27005446  0.68497656  0.15146858    -0.15210
C740        C  0.28785042  0.73815000  0.12562780     0.37120
N741        N  0.33382524  0.73731683  0.08312811    -0.89460
H742        H  0.25548930  0.82061132  0.09628061     0.18230
H743        H  0.20490507  0.62941976  0.11496733     0.18220
N744        N  0.13060968  0.70665965  0.07990578    -0.88490
H745        H  0.34906945  0.77978762  0.07674210     0.35600
H746        H  0.31589176  0.72351055  0.04367995     0.40700
H747        H  0.15292489  0.71004753  0.04018137     0.40320
H748        H  0.11408082  0.66426019  0.08247894     0.35210
C749        C  0.21977741  0.37913476  0.81693202    -0.26520
C750        C  0.27670334  0.35772955  0.80696776    -0.14590
C751        C  0.29421823  0.36612501  0.74837183     0.36030
C752        C  0.25102542  0.36664471  0.70487071    -0.25970
C753        C  0.19269924  0.35222207  0.71776640    -0.15210
C754        C  0.17651511  0.37533880  0.77321605     0.37120
N755        N  0.12315424  0.40651864  0.78248202    -0.89460
H756        H  0.21017286  0.40196530  0.85663781     0.18230
H757        H  0.26155422  0.38500551  0.66362316     0.18220
N758        N  0.35315876  0.38006829  0.73363631    -0.88490
H759        H  0.10214450  0.38974913  0.81933691     0.35600
H760        H  0.09576665  0.40315909  0.74655291     0.40700
H761        H  0.36204924  0.42099890  0.75110300     0.40320
H762        H  0.35824676  0.38379600  0.68847652     0.35210
C763        C  0.17456504  0.25474545  0.89787524    -0.26520
C764        C  0.19785943  0.19818262  0.89020273    -0.14590
C765        C  0.24804935  0.19141275  0.92636610     0.36030
C766        C  0.28653886  0.24036543  0.93247703    -0.25970
C767        C  0.27195517  0.29330237  0.90385861    -0.15210
C768        C  0.21134000  0.30233695  0.90899041     0.37120
N769        N  0.18927800  0.34764455  0.94629524    -0.89460
H770        H  0.12874528  0.26079576  0.90479856     0.18230
H771        H  0.32989624  0.23371886  0.94945994     0.18220
N772        N  0.24976927  0.14740452  0.97040344    -0.88490
H773        H  0.15308896  0.36674791  0.92664821     0.35600
H774        H  0.22093054  0.37979180  0.95244876     0.40700
H775        H  0.22145017  0.11317947  0.96080772     0.40320
H776        H  0.29226512  0.13177351  0.97433602     0.35210
C777        C  0.13877955  0.17481135  0.74318126    -0.26520
C778        C  0.12723344  0.18314545  0.80300493    -0.14590
C779        C  0.08691390  0.23078670  0.81109744     0.36030
C780        C  0.08736754  0.27729169  0.76888006    -0.25970
C781        C  0.11476714  0.26780459  0.71389864    -0.15210
C782        C  0.11249503  0.20829523  0.70108470     0.37120
N783        N  0.05924523  0.18502418  0.67828013    -0.89460
H784        H  0.18006803  0.16103363  0.72927654     0.18230
H785        H  0.06097806  0.31529867  0.77594508     0.18220
N786        N  0.04130719  0.22967853  0.85374542    -0.88490
H787        H  0.06705089  0.14229631  0.66445402     0.35600
H788        H  0.04817473  0.20786050  0.64078648     0.40700
H789        H  0.04367095  0.19244724  0.87884244     0.40320
H790        H  0.00332071  0.22328526  0.82983104     0.35210
C791        C  0.38057775  0.22699141  0.72712739    -0.26520
C792        C  0.32799865  0.19320247  0.72751852    -0.14590
C793        C  0.28968474  0.20818420  0.77232557     0.36030
C794        C  0.31906994  0.21790105  0.82301454    -0.25970
C795        C  0.34819465  0.27026879  0.82251105    -0.15210
C796        C  0.38913369  0.26955483  0.77335383     0.37120
N797        N  0.44524777  0.29595932  0.77663472    -0.89460
H798        H  0.41309984  0.22103412  0.69331286     0.18230
H799        H  0.34615189  0.18224868  0.83792474     0.18220
N800        N  0.24640077  0.24966131  0.75913540    -0.88490
H801        H  0.44791196  0.33150063  0.74854240     0.35600
H802        H  0.45388409  0.30785762  0.81943902     0.40700
H803        H  0.22585996  0.23861161  0.72146465     0.40320
H804        H  0.21579443  0.25158535  0.79234978     0.35210
C805        C  0.28934177  0.24044019  0.62311974    -0.26520
C806        C  0.26763045  0.18495947  0.63955800    -0.14590
C807        C  0.21104337  0.17457609  0.61687063     0.36030
C808        C  0.17435015  0.22333897  0.60454639    -0.25970
C809        C  0.19040128  0.27894293  0.62551957    -0.15210
C810        C  0.25069790  0.28717267  0.61369894     0.37120
N811        N  0.26950527  0.33238569  0.57495443    -0.89460
H812        H  0.33573967  0.24820491  0.62022134     0.18230
H813        H  0.13067978  0.21635499  0.58883633     0.18220
N814        N  0.19286015  0.11739471  0.60130133    -0.88490
H815        H  0.30861219  0.35036566  0.58965971     0.35600
H816        H  0.23790758  0.36504127  0.57256674     0.40700
H817        H  0.22148633  0.10218388  0.56919882     0.40320
H818        H  0.15135473  0.11822715  0.58285503     0.35210
C819        C  0.30324238  0.08695714  0.77860017    -0.26520
C820        C  0.27867012  0.09535885  0.72288516    -0.14590
C821        C  0.22311935  0.06767401  0.72034621     0.36030
C822        C  0.18691937  0.06878676  0.77162381    -0.25970
C823        C  0.20606263  0.10154783  0.82084246    -0.15210
C824        C  0.26687923  0.09259115  0.82870208     0.37120
N825        N  0.28969729  0.07723403  0.88422946    -0.89460
H826        H  0.35003192  0.08869324  0.78382732     0.18230
H827        H  0.14184318  0.05552723  0.76788325     0.18220
N828        N  0.21042913  0.02578605  0.67596491    -0.88490
H829        H  0.33445924  0.06930588  0.88143085     0.35600
H830        H  0.27009879  0.03800620  0.89663574     0.40700
H831        H  0.24153703  0.02752221  0.64256307     0.40320
H832        H  0.16889383  0.03356049  0.65948405     0.35210
C833        C  0.09050209  0.17049477  0.28664412    -0.26520
C834        C  0.10631085  0.18359081  0.22893543    -0.14590
C835        C  0.08607870  0.24091581  0.21638669     0.36030
C836        C  0.09122643  0.28506776  0.25951501    -0.25970
C837        C  0.10725552  0.27268284  0.31765600    -0.15210
C838        C  0.09001690  0.21345171  0.33147489     0.37120
N839        N  0.05395996  0.19883053  0.38066438    -0.89460
H840        H  0.06678716  0.13086325  0.29378183     0.18230
H841        H  0.07135339  0.32610838  0.25034668     0.18220
N842        N  0.04130701  0.24934315  0.17368297    -0.88490
H843        H  0.07174856  0.16287032  0.40186571     0.35600
H844        H  0.04944706  0.23255551  0.41016333     0.40700
H845        H  0.03819313  0.21343535  0.14595905     0.40320
H846        H  0.05079187  0.28641180  0.14898566     0.35210
C847        C  0.28428344  0.25190010  0.42125247    -0.26520
C848        C  0.26730087  0.19324186  0.41145421    -0.14590
C849        C  0.20814074  0.18322753  0.42955402     0.36030
C850        C  0.16799780  0.23052239  0.42916694    -0.25970
C851        C  0.18321123  0.28630903  0.40831124    -0.15210
C852        C  0.24244295  0.29769866  0.42335221     0.37120
N853        N  0.25634732  0.34769228  0.45827355    -0.89460
H854        H  0.33013606  0.26277947  0.42305058     0.18230
H855        H  0.12816965  0.22594539  0.45332901     0.18220
N856        N  0.19049704  0.13204799  0.46065962    -0.88490
H857        H  0.29761525  0.36364829  0.44714246     0.35600
H858        H  0.22570468  0.38065466  0.45270754     0.40700
H859        H  0.22319246  0.10088608  0.46127459     0.40320
H860        H  0.15382488  0.11432163  0.44058683     0.35210
C861        C  0.21827204  0.08506094  0.33836497    -0.26520
C862        C  0.27611782  0.10328935  0.33015625    -0.14590
C863        C  0.29558859  0.09176494  0.27227448     0.36030
C864        C  0.25548128  0.09512370  0.22561415    -0.25970
C865        C  0.19505440  0.10475900  0.23467758    -0.15210
C866        C  0.17817304  0.08329179  0.29123691     0.37120
N867        N  0.12665659  0.04899705  0.29867282    -0.89460
H868        H  0.20657979  0.06377787  0.37820834     0.18230
H869        H  0.27315189  0.08848456  0.18365479     0.18220
N870        N  0.35637917  0.08483449  0.25995305    -0.88490
H871        H  0.10819116  0.05875505  0.33933670     0.35600
H872        H  0.13964237  0.00564559  0.30130920     0.40700
H873        H  0.36194988  0.04437149  0.23976711     0.40320
H874        H  0.36897758  0.11675940  0.22996862     0.35210
C875        C  0.27738229  0.25314266  0.24261632    -0.26520
C876        C  0.32667067  0.27707478  0.21993237    -0.14590
C877        C  0.38042182  0.25970370  0.24629463     0.36030
C878        C  0.37873018  0.21986640  0.29572111    -0.25970
C879        C  0.32408736  0.19913273  0.31754167    -0.15210
C880        C  0.27552250  0.21841807  0.28851648     0.37120
N881        N  0.21986034  0.20638615  0.30949419    -0.89460
H882        H  0.23487171  0.26706635  0.22807320     0.18230
H883        H  0.41861694  0.20570782  0.31607857     0.18220
N884        N  0.43466343  0.28213959  0.22497538    -0.88490
H885        H  0.20742732  0.24666628  0.31977953     0.35600
H886        H  0.19482679  0.19829258  0.27487327     0.40700
H887        H  0.44014103  0.26670929  0.18241637     0.40320
H888        H  0.46894488  0.26528180  0.24941392     0.35210
C889        C  0.21151802  0.38324288  0.20863251    -0.26520
C890        C  0.27111437  0.36947068  0.21549900    -0.14590
C891        C  0.28862508  0.37775789  0.27477183     0.36030
C892        C  0.24788707  0.36854584  0.32020819    -0.25970
C893        C  0.18841117  0.35598805  0.31078199    -0.15210
C894        C  0.17129250  0.38192757  0.25655985     0.37120
N895        N  0.11867374  0.41524775  0.25116727    -0.89460
H896        H  0.19802430  0.40319501  0.16876659     0.18230
H897        H  0.26314736  0.37940400  0.36189257     0.18220
N898        N  0.34790199  0.38858987  0.29108269    -0.88490
H899        H  0.13058569  0.45816642  0.24175182     0.35600
H900        H  0.09648923  0.41722002  0.29085875     0.40700
H901        H  0.37204948  0.40105000  0.25497358     0.40320
H902        H  0.34808904  0.42537993  0.31799513     0.35210
C903        C  0.28767767  0.22763214  0.11646916    -0.26520
C904        C  0.26830817  0.28528971  0.12908668    -0.14590
C905        C  0.20747802  0.29126002  0.11974564     0.36030
C906        C  0.17158145  0.24243299  0.13011639    -0.25970
C907        C  0.19401123  0.18984490  0.15230713    -0.15210
C908        C  0.24945389  0.17935523  0.12535007     0.37120
N909        N  0.25974110  0.12814034  0.09082004    -0.89460
H910        H  0.33318384  0.21963732  0.10679858     0.18230
H911        H  0.12811891  0.24330830  0.11379465     0.18220
N912        N  0.18414698  0.33686030  0.08415248    -0.88490
H913        H  0.30163053  0.11218725  0.09838955     0.35600
H914        H  0.22864397  0.09591776  0.09907384     0.40700
H915        H  0.21331775  0.37131860  0.08025757     0.40320
H916        H  0.14627983  0.35276729  0.10404307     0.35210
loop_ 
_geom_bond_atom_site_label_1 
_geom_bond_atom_site_label_2 
_geom_bond_distance 
_geom_bond_site_symmetry_2 
_ccdc_geom_bond_type 
C1           C59   1.513       .  S
C1          C876   1.565       .  S
C1          C890   1.622       .  S
C1          C904   1.613       .  S
C2          C116   1.513       .  S
C2          C848   1.624       .  S
C2          C862   1.610       .  S
C2          C879   1.571       .  S
C3          C185   1.503       .  S
C3          C834   1.642       .  S
C3          C865   1.648       .  S
C3          C907   1.620       .  S
C4          C242   1.514       .  S
C4          C837   1.649       .  S
C4          C851   1.653       .  S
C4          C893   1.646       .  S
C5           C66   1.508       .  S
C5          C792   1.562       .  S
C5          C806   1.592       .  S
C5          C820   1.615       .  S
C6          C143   1.518       .  S
C6          C764   1.604       .  S
C6          C778   1.621       .  S
C6          C823   1.626       .  S
C7          C228   1.513       .  S
C7          C753   1.605       .  S
C7          C781   1.614       .  S
C7          C809   1.635       .  S
C8            C9   1.518       .  S
C8          C750   1.592       .  S
C8          C767   1.626       .  S
C8          C795   1.606       .  S
C9           N27   1.352       .  A
C9           C46   1.467       .  S
N10          N27   1.322       .  A
N10          N32   1.313       .  A
N10         Co47   2.070   1_556  S
C11          N36   1.339       .  A
C11          C49   1.468       .  S
C11          H56   1.081       .  S
H12          C53   1.075       .  S
C13          N37   1.338       .  A
C13          C17   1.471       .  S
C13          H42   1.080       .  S
Co14         N32   2.073       .  S
Co14         N22   2.091       .  S
Co14         N54   2.083       .  S
Co14         N30   2.071       .  S
Co14        Cl58   2.468   1_556  S
N15          C53   1.325       .  A
N15          N22   1.316       .  A
N15         Co16   2.063   1_556  S
Co16         N19   2.084       .  S
Co16         N36   2.091   1_554  S
Co16         N23   2.057       .  S
Co16        Cl58   2.423       .  S
C17         C190   1.521       .  S
C17          N55   1.350       .  A
N18          N25   1.314       .  A
N18          N48   1.326       .  A
N18         Co51   2.079       .  S
N19          N37   1.316       .  A
N19          N55   1.325       .  A
N20          C49   1.351       .  A
N20          N30   1.323       .  A
H21          C46   1.073       .  S
N22          N43   1.328       .  A
N23          N41   1.319       .  A
N23          N28   1.321       .  A
C24         C129   1.496       .  S
C24          N28   1.346       .  A
C24          C52   1.465       .  S
N25          C40   1.326       .  A
N25         Co47   2.061       .  S
C26          N54   1.334       .  A
C26          C29   1.468       .  S
C26          H60   1.076       .  S
C29         C123   1.514       .  S
C29          N50   1.353       .  A
N30          N36   1.316       .  A
N31          C57   1.332       .  A
N31          N33   1.319       .  A
N31         Co47   2.077       .  S
N32          C46   1.335       .  A
N33          N61   1.326       .  A
N33         Co51   2.082       .  S
H34          C57   1.081       .  S
H35          C52   1.081       .  S
N37         Co51   2.080       .  S
N38          N50   1.325       .  A
N38          N54   1.317       .  A
N38         Co47   2.084   1_556  S
C39         C119   1.510       .  S
C39          N43   1.357       .  A
C39          C53   1.457       .  S
C40          C59   1.460       .  S
C40          H44   1.075       .  S
N41          C52   1.337       .  A
N41         Co51   2.092       .  S
C45          C62   1.505       .  S
C45          N61   1.353       .  A
C45          C57   1.462       .  S
Co47        Cl58   2.419       .  S
N48          C59   1.354       .  A
C49         C131   1.507       .  S
Co51        Cl58   2.463       .  S
C62         C708   1.617       .  S
C62         C722   1.615       .  S
C62         C739   1.595       .  S
C63         C135   1.513       .  S
C63         C680   1.624       .  S
C63         C697   1.622       .  S
C63         C736   1.612       .  S
C64         C200   1.527       .  S
C64         C669   1.559       .  S
C64         C683   1.616       .  S
C64         C725   1.580       .  S
C65         C102   1.522       .  S
C65         C666   1.582       .  S
C65         C694   1.625       .  S
C65         C711   1.592       .  S
C66          N84   1.345       .  A
C66         C103   1.475       .  S
N67          N84   1.318       .  A
N67          N89   1.317       .  A
N67        Co104   2.068   1_545  S
C68          N93   1.330       .  A
C68         C106   1.461       .  S
C68         H113   1.081       .  S
H69         C110   1.081       .  S
C70          N94   1.341       .  A
C70          C74   1.471       .  S
C70          H99   1.080       .  S
Co71         N89   2.097   1_565  S
Co71         N79   2.096   1_565  S
Co71        N111   2.079       .  S
Co71         N87   2.088       .  S
Co71       Cl115   2.476       .  S
N72         C110   1.330       .  A
N72          N79   1.319       .  A
N72         Co73   2.071   1_545  S
Co73         N76   2.069   1_565  S
Co73         N93   2.069       .  S
Co73         N80   2.074       .  S
Co73       Cl115   2.418       .  S
C74         C188   1.511       .  S
C74         N112   1.345       .  A
N75          N82   1.314       .  A
N75         N105   1.330       .  A
N75        Co108   2.092   1_545  S
N76          N94   1.318       .  A
N76         N112   1.319       .  A
N77         C106   1.353       .  A
N77          N87   1.327       .  A
H78         C103   1.081       .  S
N79         N100   1.331       .  A
N80          N98   1.320       .  A
N80          N85   1.323       .  A
C81         C127   1.505       .  S
C81          N85   1.348       .  A
C81         C109   1.466       .  S
N82          C97   1.326       .  A
N82        Co104   2.068   1_545  S
C83         N111   1.334       .  A
C83          C86   1.462       .  S
C83         H117   1.077       .  S
C86         C124   1.507       .  S
C86         N107   1.354       .  A
N87          N93   1.317       .  A
N88         C114   1.342       .  A
N88          N90   1.319       .  A
N88        Co104   2.095       .  S
N89         C103   1.347       .  A
N90         N118   1.327       .  A
N90        Co108   2.097       .  S
H91         C114   1.080       .  S
H92         C109   1.081       .  S
N94        Co108   2.087   1_545  S
N95         N107   1.325       .  A
N95         N111   1.318       .  A
N95        Co104   2.085       .  S
C96         C121   1.516       .  S
C96         N100   1.356       .  A
C96         C110   1.457       .  S
C97         C116   1.458       .  S
C97         H101   1.075       .  S
N98         C109   1.339       .  A
N98        Co108   2.090       .  S
C102        N118   1.356       .  A
C102        C114   1.467       .  S
Co104      Cl115   2.417       .  S
N105        C116   1.360       .  A
C106        C133   1.512       .  S
Co108      Cl115   2.479       .  S
C119        C624   1.562       .  S
C119        C641   1.614       .  S
C119        C652   1.629       .  S
C120        C212   1.503       .  S
C120        C596   1.649       .  S
C120        C613   1.628       .  S
C120        C655   1.648       .  S
C121        C582   1.620       .  S
C121        C599   1.622       .  S
C121        C627   1.563       .  S
C122        C150   1.509       .  S
C122        C585   1.652       .  S
C122        C610   1.642       .  S
C122        C638   1.628       .  S
C123        C540   1.610       .  S
C123        C554   1.624       .  S
C123        C568   1.604       .  S
C124        C512   1.631       .  S
C124        C526   1.607       .  S
C124        C571   1.613       .  S
C125        C207   1.518       .  S
C125        C498   1.554       .  S
C125        C515   1.613       .  S
C125        C543   1.574       .  S
C126        C165   1.522       .  S
C126        C501   1.583       .  S
C126        C529   1.625       .  S
C126        C557   1.594       .  S
C127        C456   1.629       .  S
C127        C470   1.635       .  S
C127        C484   1.640       .  S
C128        C222   1.514       .  S
C128        C428   1.626       .  S
C128        C442   1.569       .  S
C128        C487   1.619       .  S
C129        C414   1.644       .  S
C129        C431   1.650       .  S
C129        C459   1.624       .  S
C130        C155   1.515       .  S
C130        C417   1.615       .  S
C130        C445   1.564       .  S
C130        C473   1.616       .  S
C131        C372   1.585       .  S
C131        C386   1.623       .  S
C131        C400   1.605       .  S
C132        C232   1.525       .  S
C132        C344   1.637       .  S
C132        C358   1.628       .  S
C132        C389   1.642       .  S
C133        C333   1.598       .  S
C133        C347   1.609       .  S
C133        C375   1.559       .  S
C134        C175   1.520       .  S
C134        C330   1.641       .  S
C134        C361   1.626       .  S
C134        C403   1.640       .  S
C135        N153   1.351       .  A
C135        C172   1.467       .  S
N136        N153   1.324       .  A
N136        N158   1.318       .  A
N136       Co173   2.079   1_455  S
C137        N162   1.332       .  A
C137        C175   1.461       .  S
C137        H182   1.070       .  S
H138        C179   1.074       .  S
C139        N163   1.343       .  A
C139        C143   1.473       .  S
C139        H168   1.082       .  S
Co140       N158   2.085   1_655  S
Co140       N148   2.099   1_654  S
Co140       N180   2.101       .  S
Co140       N156   2.079   1_554  S
Co140      Cl184   2.466       .  S
N141        C179   1.331       .  A
N141        N148   1.318       .  A
N141       Co142   2.076   1_455  S
Co142       N145   2.079   1_665  S
Co142       N162   2.077       .  S
Co142       N149   2.066   1_565  S
Co142      Cl184   2.424   1_556  S
C143        N181   1.350       .  A
N144        N151   1.315       .  A
N144        N174   1.321       .  A
N144       Co177   2.068   1_455  S
N145        N163   1.318       .  A
N145        N181   1.324       .  A
N146        C175   1.352       .  A
N146        N156   1.324       .  A
H147        C172   1.074       .  S
N148        N169   1.331       .  A
N149        N167   1.317       .  A
N149        N154   1.320       .  A
C150        N154   1.346       .  A
C150        C178   1.471       .  S
N151        C166   1.331       .  A
N151       Co173   2.067   1_445  S
C152        N180   1.339       .  A
C152        C155   1.469       .  S
C152        H186   1.078       .  S
C155        N176   1.349       .  A
N156        N162   1.316       .  A
N157        C183   1.335       .  A
N157        N159   1.320       .  A
N157       Co173   2.097   1_545  S
N158        C172   1.336       .  A
N159        N187   1.330       .  A
N159       Co177   2.090       .  S
H160        C183   1.081       .  S
H161        C178   1.079       .  S
N163       Co177   2.094   1_456  S
N164        N176   1.324       .  A
N164        N180   1.319       .  A
N164       Co173   2.065       .  S
C165        N169   1.359       .  A
C165        C179   1.459       .  S
C166        C185   1.459       .  S
C166        H170   1.073       .  S
N167        C178   1.343       .  A
N167       Co177   2.093   1_556  S
C171        C189   1.527       .  S
C171        N187   1.354       .  A
C171        C183   1.469       .  S
Co173      Cl184   2.430       .  S
N174        C185   1.353       .  A
Co177      Cl184   2.473   1_545  S
C188        C288   1.617       .  S
C188        C305   1.641       .  S
C188        C316   1.629       .  S
C189        C260   1.610       .  S
C189        C274   1.572       .  S
C189        C319   1.615       .  S
C190        C249   1.646       .  S
C190        C263   1.648       .  S
C190        C291   1.624       .  S
C191        C192   1.509       .  S
C191        C246   1.604       .  S
C191        C277   1.576       .  S
C191        C302   1.614       .  S
C192        N210   1.352       .  A
C192        C229   1.466       .  S
N193        N210   1.327       .  A
N193        N215   1.314       .  A
N193       Co230   2.078       .  S
C194        N219   1.341       .  A
C194        C232   1.476       .  S
C194        H239   1.075       .  S
H195        C236   1.081       .  S
C196        N220   1.336       .  A
C196        C200   1.466       .  S
C196        H225   1.078       .  S
Co197       N215   2.080       .  S
Co197       N205   2.053       .  S
Co197       N237   2.071       .  S
Co197       N213   2.078       .  S
Co197      Cl241   2.438       .  S
N198        C236   1.353       .  A
N198        N205   1.319       .  A
N198       Co199   2.128       .  S
Co199       N202   2.102   1_655  S
Co199       N219   2.098       .  S
Co199       N206   2.109   1_655  S
Co199      Cl241   2.466       .  S
C200        N238   1.357       .  A
N201        N208   1.315       .  A
N201        N231   1.325       .  A
N201       Co234   2.084       .  S
N202        N220   1.320       .  A
N202        N238   1.328       .  A
N203        C232   1.348       .  A
N203        N213   1.322       .  A
H204        C229   1.081       .  S
N205        N226   1.315       .  A
N206        N224   1.320       .  A
N206        N211   1.330       .  A
C207        N211   1.358       .  A
C207        C235   1.461       .  S
N208        C223   1.331       .  A
N208       Co230   2.076   1_455  S
C209        N237   1.337       .  A
C209        C212   1.460       .  S
C209        H243   1.082       .  S
C212        N233   1.353       .  A
N213        N219   1.318       .  A
N214        C240   1.338       .  A
N214        N216   1.317       .  A
N214       Co230   2.083   1_455  S
N215        C229   1.337       .  A
N216        N244   1.326       .  A
N216       Co234   2.084       .  S
H217        C240   1.075       .  S
H218        C235   1.082       .  S
N220       Co234   2.088       .  S
N221        N233   1.323       .  A
N221        N237   1.317       .  A
N221       Co230   2.083       .  S
C222        N226   1.342       .  A
C222        C236   1.482       .  S
C223        C242   1.460       .  S
C223        H227   1.069       .  S
N224        C235   1.335       .  A
N224       Co234   2.083       .  S
C228        N244   1.354       .  A
C228        C240   1.463       .  S
Co230      Cl241   2.451       .  S
N231        C242   1.356       .  A
Co234      Cl241   2.444   1_455  S
C245        H252   1.070       .  S
C245        C246   1.408       .  A
C245        C250   1.422       .  A
C246        C247   1.425       .  A
C247        C248   1.413       .  A
C247        N254   1.437       .  S
C248        H253   1.056       .  S
C248        C249   1.420       .  A
C249        C250   1.438       .  A
C250        N251   1.436       .  S
N251        H255   1.044       .  S
N251        H256   1.038       .  S
N254        H257   1.042       .  S
N254        H258   1.046       .  S
C259        H266   1.083       .  S
C259        C260   1.422       .  A
C259        C264   1.427       .  A
C260        C261   1.424       .  A
C261        C262   1.430       .  A
C261        N268   1.432       .  S
C262        H267   1.070       .  S
C262        C263   1.420       .  A
C263        C264   1.430       .  A
C264        N265   1.437       .  S
N265        H269   1.046       .  S
N265        H270   1.041       .  S
N268        H271   1.046       .  S
N268        H272   1.045       .  S
C273        H280   1.082       .  S
C273        C274   1.431       .  A
C273        C278   1.459       .  A
C274        C275   1.383       .  A
C275        C276   1.332       .  A
C275        N282   1.399       .  S
C276        H281   1.058       .  S
C276        C277   1.361       .  A
C277        C278   1.440       .  A
C278        N279   1.429       .  S
N279        H283   1.044       .  S
N279        H284   1.044       .  S
N282        H285   1.025       .  S
N282        H286   1.019       .  S
C287        H294   1.068       .  S
C287        C288   1.425       .  A
C287        C292   1.420       .  A
C288        C289   1.421       .  A
C289        C290   1.420       .  A
C289        N296   1.432       .  S
C290        H295   1.072       .  S
C290        C291   1.412       .  A
C291        C292   1.421       .  A
C292        N293   1.436       .  S
N293        H297   1.045       .  S
N293        H298   1.046       .  S
N296        H299   1.045       .  S
N296        H300   1.046       .  S
C301        H308   1.082       .  S
C301        C302   1.423       .  A
C301        C306   1.431       .  A
C302        C303   1.419       .  A
C303        C304   1.422       .  A
C303        N310   1.436       .  S
C304        H309   1.072       .  S
C304        C305   1.415       .  A
C305        C306   1.437       .  A
C306        N307   1.440       .  S
N307        H311   1.046       .  S
N307        H312   1.040       .  S
N310        H313   1.045       .  S
N310        H314   1.045       .  S
C315        H322   1.053       .  S
C315        C316   1.413       .  A
C315        C320   1.407       .  A
C316        C317   1.433       .  A
C317        C318   1.437       .  A
C317        N324   1.435       .  S
C318        H323   1.072       .  S
C318        C319   1.417       .  A
C319        C320   1.437       .  A
C320        N321   1.441       .  S
N321        H325   1.046       .  S
N321        H326   1.037       .  S
N324        H327   1.045       .  S
N324        H328   1.046       .  S
C329        H336   1.080       .  S
C329        C330   1.401       .  A
C329        C334   1.421       .  A
C330        C331   1.444       .  A
C331        C332   1.421       .  A
C331        N338   1.437       .  S
C332        H337   1.077       .  S
C332        C333   1.405       .  A
C333        C334   1.446       .  A
C334        N335   1.434       .  S
N335        H339   1.044       .  S
N335        H340   1.034       .  S
N338        H341   1.040       .  S
N338        H342   1.046       .  S
C343        H350   1.057       .  S
C343        C344   1.426       .  A
C343        C348   1.417       .  A
C344        C345   1.434       .  A
C345        C346   1.430       .  A
C345        N352   1.438       .  S
C346        H351   1.077       .  S
C346        C347   1.414       .  A
C347        C348   1.418       .  A
C348        N349   1.437       .  S
N349        H353   1.045       .  S
N349        H354   1.045       .  S
N352        H355   1.038       .  S
N352        H356   1.045       .  S
C357        H364   1.072       .  S
C357        C358   1.415       .  A
C357        C362   1.416       .  A
C358        C359   1.440       .  A
C359        C360   1.422       .  A
C359        N366   1.427       .  S
C360        H365   1.069       .  S
C360        C361   1.405       .  A
C361        C362   1.426       .  A
C362        N363   1.433       .  S
N363        H367   1.044       .  S
N363        H368   1.041       .  S
N366        H369   1.046       .  S
N366        H370   1.046       .  S
C371        H378   1.055       .  S
C371        C372   1.369       .  A
C371        C376   1.332       .  A
C372        C373   1.458       .  A
C373        C374   1.452       .  A
C373        N380   1.432       .  S
C374        H379   1.082       .  S
C374        C375   1.425       .  A
C375        C376   1.383       .  A
C376        N377   1.406       .  S
N377        H381   1.030       .  S
N377        H382   1.018       .  S
N380        H383   1.034       .  S
N380        H384   1.043       .  S
C385        H392   1.083       .  S
C385        C386   1.428       .  A
C385        C390   1.436       .  A
C386        C387   1.420       .  A
C387        C388   1.421       .  A
C387        N394   1.436       .  S
C388        H393   1.077       .  S
C388        C389   1.415       .  A
C389        C390   1.433       .  A
C390        N391   1.440       .  S
N391        H395   1.046       .  S
N391        H396   1.042       .  S
N394        H397   1.044       .  S
N394        H398   1.045       .  S
C399        H406   1.070       .  S
C399        C400   1.408       .  A
C399        C404   1.425       .  A
C400        C401   1.429       .  A
C401        C402   1.417       .  A
C401        N408   1.435       .  S
C402        H407   1.066       .  S
C402        C403   1.422       .  A
C403        C404   1.425       .  A
C404        N405   1.433       .  S
N405        H409   1.046       .  S
N405        H410   1.045       .  S
N408        H411   1.042       .  S
N408        H412   1.043       .  S
C413        H420   1.061       .  S
C413        C414   1.411       .  A
C413        C418   1.410       .  A
C414        C415   1.423       .  A
C415        C416   1.434       .  A
C415        N422   1.439       .  S
C416        H421   1.072       .  S
C416        C417   1.415       .  A
C417        C418   1.438       .  A
C418        N419   1.438       .  S
N419        H423   1.045       .  S
N419        H424   1.037       .  S
N422        H425   1.043       .  S
N422        H426   1.045       .  S
C427        H434   1.083       .  S
C427        C428   1.421       .  A
C427        C432   1.429       .  A
C428        C429   1.429       .  A
C429        C430   1.433       .  A
C429        N436   1.433       .  S
C430        H435   1.078       .  S
C430        C431   1.421       .  A
C431        C432   1.427       .  A
C432        N433   1.439       .  S
N433        H437   1.046       .  S
N433        H438   1.045       .  S
N436        H439   1.044       .  S
N436        H440   1.046       .  S
C441        H448   1.080       .  S
C441        C442   1.430       .  A
C441        C446   1.457       .  A
C442        C443   1.372       .  A
C443        C444   1.323       .  A
C443        N450   1.384       .  S
C444        H449   1.079       .  S
C444        C445   1.359       .  A
C445        C446   1.434       .  A
C446        N447   1.431       .  S
N447        H451   1.044       .  S
N447        H452   1.045       .  S
N450        H453   1.005       .  S
N450        H454   1.000       .  S
C455        H462   1.075       .  S
C455        C456   1.406       .  A
C455        C460   1.410       .  A
C456        C457   1.429       .  A
C457        C458   1.426       .  A
C457        N464   1.436       .  S
C458        H463   1.074       .  S
C458        C459   1.425       .  A
C459        C460   1.419       .  A
C460        N461   1.427       .  S
N461        H465   1.046       .  S
N461        H466   1.039       .  S
N464        H467   1.045       .  S
N464        H468   1.045       .  S
C469        H476   1.077       .  S
C469        C470   1.421       .  A
C469        C474   1.424       .  A
C470        C471   1.426       .  A
C471        C472   1.435       .  A
C471        N478   1.431       .  S
C472        H477   1.083       .  S
C472        C473   1.431       .  A
C473        C474   1.418       .  A
C474        N475   1.434       .  S
N475        H479   1.045       .  S
N475        H480   1.046       .  S
N478        H481   1.046       .  S
N478        H482   1.046       .  S
C483        H490   1.071       .  S
C483        C484   1.418       .  A
C483        C488   1.431       .  A
C484        C485   1.427       .  A
C485        C486   1.430       .  A
C485        N492   1.428       .  S
C486        H491   1.083       .  S
C486        C487   1.423       .  A
C487        C488   1.422       .  A
C488        N489   1.428       .  S
N489        H493   1.046       .  S
N489        H494   1.046       .  S
N492        H495   1.045       .  S
N492        H496   1.046       .  S
C497        H504   1.082       .  S
C497        C498   1.443       .  A
C497        C502   1.471       .  A
C498        C499   1.381       .  A
C499        C500   1.343       .  A
C499        N506   1.415       .  S
C500        H505   1.086       .  S
C500        C501   1.360       .  A
C501        C502   1.450       .  A
C502        N503   1.428       .  S
N503        H507   1.042       .  S
N503        H508   1.045       .  S
N506        H509   1.041       .  S
N506        H510   1.027       .  S
C511        H518   1.068       .  S
C511        C512   1.423       .  A
C511        C516   1.426       .  A
C512        C513   1.432       .  A
C513        C514   1.420       .  A
C513        N520   1.438       .  S
C514        H519   1.078       .  S
C514        C515   1.410       .  A
C515        C516   1.433       .  A
C516        N517   1.432       .  S
N517        H521   1.042       .  S
N517        H522   1.045       .  S
N520        H523   1.044       .  S
N520        H524   1.045       .  S
C525        H532   1.075       .  S
C525        C526   1.412       .  A
C525        C530   1.436       .  A
C526        C527   1.412       .  A
C527        C528   1.416       .  A
C527        N534   1.437       .  S
C528        H533   1.072       .  S
C528        C529   1.407       .  A
C529        C530   1.450       .  A
C530        N531   1.439       .  S
N531        H535   1.045       .  S
N531        H536   1.042       .  S
N534        H537   1.046       .  S
N534        H538   1.046       .  S
C539        H546   1.071       .  S
C539        C540   1.406       .  A
C539        C544   1.413       .  A
C540        C541   1.409       .  A
C541        C542   1.417       .  A
C541        N548   1.436       .  S
C542        H547   1.076       .  S
C542        C543   1.410       .  A
C543        C544   1.423       .  A
C544        N545   1.430       .  S
N545        H549   1.045       .  S
N545        H550   1.045       .  S
N548        H551   1.043       .  S
N548        H552   1.045       .  S
C553        H560   1.080       .  S
C553        C554   1.417       .  A
C553        C558   1.425       .  A
C554        C555   1.418       .  A
C555        C556   1.409       .  A
C555        N562   1.437       .  S
C556        H561   1.076       .  S
C556        C557   1.416       .  A
C557        C558   1.430       .  A
C558        N559   1.435       .  S
N559        H563   1.045       .  S
N559        H564   1.045       .  S
N562        H565   1.045       .  S
N562        H566   1.045       .  S
C567        H574   1.077       .  S
C567        C568   1.406       .  A
C567        C572   1.411       .  A
C568        C569   1.435       .  A
C569        C570   1.409       .  A
C569        N576   1.430       .  S
C570        H575   1.070       .  S
C570        C571   1.395       .  A
C571        C572   1.426       .  A
C572        N573   1.431       .  S
N573        H577   1.046       .  S
N573        H578   1.045       .  S
N576        H579   1.046       .  S
N576        H580   1.045       .  S
C581        H588   1.077       .  S
C581        C582   1.415       .  A
C581        C586   1.438       .  A
C582        C583   1.434       .  A
C583        C584   1.418       .  A
C583        N590   1.434       .  S
C584        H589   1.059       .  S
C584        C585   1.414       .  A
C585        C586   1.442       .  A
C586        N587   1.432       .  S
N587        H591   1.045       .  S
N587        H592   1.039       .  S
N590        H593   1.038       .  S
N590        H594   1.045       .  S
C595        H602   1.079       .  S
C595        C596   1.408       .  A
C595        C600   1.422       .  A
C596        C597   1.433       .  A
C597        C598   1.431       .  A
C597        N604   1.434       .  S
C598        H603   1.075       .  S
C598        C599   1.419       .  A
C599        C600   1.438       .  A
C600        N601   1.436       .  S
N601        H605   1.045       .  S
N601        H606   1.041       .  S
N604        H607   1.044       .  S
N604        H608   1.043       .  S
C609        H616   1.075       .  S
C609        C610   1.414       .  A
C609        C614   1.432       .  A
C610        C611   1.428       .  A
C611        C612   1.414       .  A
C611        N618   1.436       .  S
C612        H617   1.065       .  S
C612        C613   1.409       .  A
C613        C614   1.428       .  A
C614        N615   1.428       .  S
N615        H619   1.046       .  S
N615        H620   1.044       .  S
N618        H621   1.044       .  S
N618        H622   1.043       .  S
C623        H630   1.085       .  S
C623        C624   1.361       .  A
C623        C628   1.316       .  A
C624        C625   1.437       .  A
C625        C626   1.453       .  A
C625        N632   1.430       .  S
C626        H631   1.081       .  S
C626        C627   1.428       .  A
C627        C628   1.379       .  A
C628        N629   1.392       .  S
N629        H633   0.985       .  S
N629        H634   1.014       .  S
N632        H635   1.041       .  S
N632        H636   1.045       .  S
C637        H644   1.068       .  S
C637        C638   1.407       .  A
C637        C642   1.417       .  A
C638        C639   1.426       .  A
C639        C640   1.425       .  A
C639        N646   1.437       .  S
C640        H645   1.083       .  S
C640        C641   1.429       .  A
C641        C642   1.419       .  A
C642        N643   1.434       .  S
N643        H647   1.044       .  S
N643        H648   1.039       .  S
N646        H649   1.046       .  S
N646        H650   1.046       .  S
C651        H658   1.077       .  S
C651        C652   1.410       .  A
C651        C656   1.430       .  A
C652        C653   1.438       .  A
C653        C654   1.420       .  A
C653        N660   1.434       .  S
C654        H659   1.062       .  S
C654        C655   1.423       .  A
C655        C656   1.440       .  A
C656        N657   1.436       .  S
N657        H661   1.042       .  S
N657        H662   1.040       .  S
N660        H663   1.037       .  S
N660        H664   1.044       .  S
C665        H672   1.082       .  S
C665        C666   1.357       .  A
C665        C670   1.348       .  A
C666        C667   1.455       .  A
C667        C668   1.469       .  A
C667        N674   1.431       .  S
C668        H673   1.082       .  S
C668        C669   1.439       .  A
C669        C670   1.382       .  A
C670        N671   1.410       .  S
N671        H675   1.043       .  S
N671        H676   1.032       .  S
N674        H677   1.039       .  S
N674        H678   1.043       .  S
C679        H686   1.067       .  S
C679        C680   1.418       .  A
C679        C684   1.431       .  A
C680        C681   1.424       .  A
C681        C682   1.428       .  A
C681        N688   1.434       .  S
C682        H687   1.077       .  S
C682        C683   1.415       .  A
C683        C684   1.432       .  A
C684        N685   1.438       .  S
N685        H689   1.045       .  S
N685        H690   1.042       .  S
N688        H691   1.044       .  S
N688        H692   1.046       .  S
C693        H700   1.080       .  S
C693        C694   1.408       .  A
C693        C698   1.416       .  A
C694        C695   1.440       .  A
C695        C696   1.435       .  A
C695        N702   1.433       .  S
C696        H701   1.075       .  S
C696        C697   1.420       .  A
C697        C698   1.425       .  A
C698        N699   1.438       .  S
N699        H703   1.045       .  S
N699        H704   1.045       .  S
N702        H705   1.042       .  S
N702        H706   1.045       .  S
C707        H714   1.069       .  S
C707        C708   1.420       .  A
C707        C712   1.409       .  A
C708        C709   1.418       .  A
C709        C710   1.423       .  A
C709        N716   1.429       .  S
C710        H715   1.076       .  S
C710        C711   1.413       .  A
C711        C712   1.416       .  A
C712        N713   1.433       .  S
N713        H717   1.043       .  S
N713        H718   1.043       .  S
N716        H719   1.045       .  S
N716        H720   1.045       .  S
C721        H728   1.080       .  S
C721        C722   1.399       .  A
C721        C726   1.414       .  A
C722        C723   1.422       .  A
C723        C724   1.414       .  A
C723        N730   1.437       .  S
C724        H729   1.075       .  S
C724        C725   1.408       .  A
C725        C726   1.434       .  A
C726        N727   1.431       .  S
N727        H731   1.043       .  S
N727        H732   1.046       .  S
N730        H733   1.044       .  S
N730        H734   1.045       .  S
C735        H742   1.072       .  S
C735        C736   1.410       .  A
C735        C740   1.416       .  A
C736        C737   1.422       .  A
C737        C738   1.408       .  A
C737        N744   1.432       .  S
C738        H743   1.070       .  S
C738        C739   1.404       .  A
C739        C740   1.417       .  A
C740        N741   1.433       .  S
N741        H745   1.046       .  S
N741        H746   1.045       .  S
N744        H747   1.046       .  S
N744        H748   1.046       .  S
C749        H756   1.072       .  S
C749        C750   1.414       .  A
C749        C754   1.419       .  A
C750        C751   1.414       .  A
C751        C752   1.412       .  A
C751        N758   1.429       .  S
C752        H757   1.063       .  S
C752        C753   1.409       .  A
C753        C754   1.425       .  A
C754        N755   1.435       .  S
N755        H759   1.045       .  S
N755        H760   1.043       .  S
N758        H761   1.042       .  S
N758        H762   1.046       .  S
C763        H770   1.072       .  S
C763        C764   1.416       .  A
C763        C768   1.404       .  A
C764        C765   1.433       .  A
C765        C766   1.437       .  A
C765        N772   1.431       .  S
C766        H771   1.083       .  S
C766        C767   1.424       .  A
C767        C768   1.412       .  A
C768        N769   1.437       .  S
N769        H773   1.045       .  S
N769        H774   1.045       .  S
N772        H775   1.044       .  S
N772        H776   1.045       .  S
C777        H784   1.048       .  S
C777        C778   1.409       .  A
C777        C782   1.378       .  A
C778        C779   1.445       .  A
C779        C780   1.443       .  A
C779        N786   1.429       .  S
C780        H785   1.075       .  S
C780        C781   1.423       .  A
C781        C782   1.399       .  A
C782        N783   1.435       .  S
N783        H787   1.046       .  S
N783        H788   1.041       .  S
N786        H789   1.034       .  S
N786        H790   1.044       .  S
C791        H798   1.082       .  S
C791        C792   1.434       .  A
C791        C796   1.455       .  A
C792        C793   1.392       .  A
C793        C794   1.366       .  A
C793        N800   1.412       .  S
C794        H799   1.086       .  S
C794        C795   1.376       .  A
C795        C796   1.464       .  A
C796        N797   1.426       .  S
N797        H801   1.043       .  S
N797        H802   1.039       .  S
N800        H803   1.019       .  S
N800        H804   1.034       .  S
C805        H812   1.082       .  S
C805        C806   1.419       .  A
C805        C810   1.412       .  A
C806        C807   1.423       .  A
C807        C808   1.432       .  A
C807        N814   1.423       .  S
C808        H813   1.080       .  S
C808        C809   1.413       .  A
C809        C810   1.422       .  A
C810        N811   1.433       .  S
N811        H815   1.046       .  S
N811        H816   1.046       .  S
N814        H817   1.044       .  S
N814        H818   1.046       .  S
C819        H826   1.083       .  S
C819        C820   1.414       .  A
C819        C824   1.422       .  A
C820        C821   1.426       .  A
C821        C822   1.436       .  A
C821        N828   1.431       .  S
C822        H827   1.083       .  S
C822        C823   1.427       .  A
C823        C824   1.425       .  A
C824        N825   1.426       .  S
N825        H829   1.046       .  S
N825        H830   1.046       .  S
N828        H831   1.045       .  S
N828        H832   1.044       .  S
C833        H840   1.072       .  S
C833        C834   1.404       .  A
C833        C838   1.424       .  A
C834        C835   1.427       .  A
C835        C836   1.421       .  A
C835        N842   1.438       .  S
C836        H841   1.070       .  S
C836        C837   1.416       .  A
C837        C838   1.451       .  A
C838        N839   1.436       .  S
N839        H843   1.044       .  S
N839        H844   1.033       .  S
N842        H845   1.043       .  S
N842        H846   1.046       .  S
C847        H854   1.083       .  S
C847        C848   1.420       .  A
C847        C852   1.426       .  A
C848        C849   1.436       .  A
C849        C850   1.426       .  A
C849        N856   1.433       .  S
C850        H855   1.072       .  S
C850        C851   1.411       .  A
C851        C852   1.429       .  A
C852        N853   1.436       .  S
N853        H857   1.046       .  S
N853        H858   1.043       .  S
N856        H859   1.038       .  S
N856        H860   1.044       .  S
C861        H868   1.070       .  S
C861        C862   1.404       .  A
C861        C866   1.425       .  A
C862        C863   1.423       .  A
C863        C864   1.419       .  A
C863        N870   1.432       .  S
C864        H869   1.053       .  S
C864        C865   1.420       .  A
C865        C866   1.440       .  A
C866        N867   1.430       .  S
N867        H871   1.046       .  S
N867        H872   1.042       .  S
N870        H873   1.045       .  S
N870        H874   1.046       .  S
C875        H882   1.083       .  S
C875        C876   1.359       .  A
C875        C880   1.323       .  A
C876        C877   1.435       .  A
C877        C878   1.459       .  A
C877        N884   1.431       .  S
C878        H883   1.082       .  S
C878        C879   1.429       .  A
C879        C880   1.377       .  A
C880        N881   1.391       .  S
N881        H885   0.996       .  S
N881        H886   1.000       .  S
N884        H887   1.045       .  S
N884        H888   1.045       .  S
C889        H896   1.072       .  S
C889        C890   1.415       .  A
C889        C894   1.432       .  A
C890        C891   1.433       .  A
C891        C892   1.412       .  A
C891        N898   1.435       .  S
C892        H897   1.050       .  S
C892        C893   1.414       .  A
C893        C894   1.438       .  A
C894        N895   1.437       .  S
N895        H899   1.045       .  S
N895        H900   1.042       .  S
N898        H901   1.035       .  S
N898        H902   1.046       .  S
C903        H910   1.083       .  S
C903        C904   1.426       .  A
C903        C908   1.427       .  A
C904        C905   1.422       .  A
C905        C906   1.411       .  A
C905        N912   1.436       .  S
C906        H911   1.069       .  S
C906        C907   1.411       .  A
C907        C908   1.432       .  A
C908        N909   1.436       .  S
N909        H913   1.046       .  S
N909        H914   1.045       .  S
N912        H915   1.040       .  S
N912        H916   1.046       .  S
