geometry optimzed in LAMMPS
_audit_creation_date              2020-11-30 
_audit_creation_method            'lammps2cif' 
_symmetry_space_group_name_H-M    'P1' 
_symmetry_Int_Tables_number       1 
_symmetry_cell_setting            triclinic 
loop_ 
_symmetry_equiv_pos_as_xyz 
  x,y,z 
_cell_length_a                    44.36542424 
_cell_length_b                    44.37325048747823 
_cell_length_c                    44.11843785292134 
_cell_angle_alpha                 90.22770902664091 
_cell_angle_beta                  91.67080689526514 
_cell_angle_gamma                 88.82035314391646 
loop_ 
_atom_site_label 
_atom_site_type_symbol 
_atom_site_fract_x 
_atom_site_fract_y 
_atom_site_fract_z 
_atom_site_charge 
C1          C  0.30293012  0.30365850  0.30615195    -0.02100
C2          C  0.47080133  0.06423762  0.29706135    -0.02100
C3          C  0.05234599  0.30598378  0.47204884    -0.02100
C4          C  0.22355269  0.22136110  0.22731656    -0.02100
C5          C  0.30700107  0.46203548  0.05349670    -0.02100
C6          C  0.47695644  0.23156879  0.05501396    -0.02100
C7          C  0.22126798  0.04372712  0.47760969    -0.02100
C8          C  0.05347416  0.48068327  0.22560062    -0.02100
Zn9        Zn  0.03763180  0.04344356  0.03669372     1.49700
Zn10       Zn  0.03492044  0.00117582  0.47781709     1.49400
Zn11       Zn  0.00004532  0.48476006  0.03692041     1.49100
Zn12       Zn  0.47664095  0.04234295  0.99548224     1.49500
O13         O  0.01179961  0.01743734  0.01120123    -1.83700
O14         O  0.07869524  0.04471258  0.01939047    -0.74300
O15         O  0.04015510  0.45512802  0.48067556    -0.74200
O16         O  0.01521978  0.48973572  0.07980998    -0.73700
O17         O  0.07686705  0.01742432  0.47928176    -0.74400
O18         O  0.04221707  0.02855680  0.07989619    -0.74000
O19         O  0.01651769  0.44423469  0.02299385    -0.74500
O20         O  0.43828263  0.02399486  0.01132161    -0.73900
O21         O  0.01578858  0.01408103  0.43707743    -0.74700
O22         O  0.45421183  0.48244948  0.03690339    -0.74100
O23         O  0.47510248  0.04202306  0.44863036    -0.74500
O24         O  0.47888518  0.08694671  0.00965735    -0.74500
O25         O  0.02186838  0.08640847  0.03911648    -0.74200
C26         C  0.09128636  0.03429875  0.49775366     0.77500
C27         C  0.03186565  0.43615836  0.50035006     0.78000
C28         C  0.03194644  0.50851268  0.09380044     0.77000
C29         C  0.43284574  0.49970451  0.02691963     0.77400
C30         C  0.49185426  0.03006883  0.42855012     0.78500
C31         C  0.49805925  0.10101514  0.02635199     0.77600
Zn32       Zn  0.22988172  0.03378636  0.28082420     1.49700
Zn33       Zn  0.25044436  0.47989837  0.23908616     1.49400
Zn34       Zn  0.28755830  0.03907677  0.23847207     1.49100
Zn35       Zn  0.28892463  0.99665271  0.29860914     1.49500
O36         O  0.26445797  0.01228335  0.26398172    -1.83700
O37         O  0.19214755  0.01610907  0.26412727    -0.74300
O38         O  0.26787445  0.47985686  0.19729945    -0.74200
O39         O  0.26586607  0.07929917  0.23464087    -0.73700
O40         O  0.20526813  0.48230676  0.23276784    -0.74400
O41         O  0.22806646  0.07658687  0.26663734    -0.74000
O42         O  0.29449181  0.02228033  0.19542487    -0.74500
O43         O  0.33059855  0.01438844  0.29820545    -0.73900
O44         O  0.26165870  0.44053627  0.25818982    -0.74700
O45         O  0.32802594  0.04629386  0.25916115    -0.74100
O46         O  0.29176331  0.45088366  0.29801120    -0.74500
O47         O  0.27193220  0.00896718  0.33923995    -0.74500
O48         O  0.22960551  0.03396711  0.32727616    -0.74200
C49         C  0.18528095  0.49836978  0.24554003     0.77500
C50         C  0.28488160  0.49744512  0.18319404     0.78000
C51         C  0.24326618  0.09104539  0.24776596     0.77000
C52         C  0.34213792  0.03458081  0.28193643     0.77400
C53         C  0.27856397  0.43203369  0.28042791     0.78500
C54         C  0.24848118  0.02361230  0.34718219     0.77600
Zn55       Zn  0.29718050  0.27557640  0.99998396     1.49700
Zn56       Zn  0.23894580  0.28167026  0.04104105     1.49400
Zn57       Zn  0.23766929  0.24196806  0.47967244     1.49100
Zn58       Zn  0.27776614  0.21881702  0.03784340     1.49500
O59         O  0.26265151  0.25444773  0.01489464    -1.83700
O60         O  0.29959244  0.31701297  0.01708700    -0.74300
O61         O  0.19632944  0.28873494  0.02331407    -0.74200
O62         O  0.25469156  0.25784503  0.44090211    -0.73700
O63         O  0.25953544  0.32221716  0.04565870    -0.74400
O64         O  0.29715213  0.27957762  0.45492642    -0.74000
O65         O  0.19539640  0.25952013  0.48277143    -0.74500
O66         O  0.26149735  0.18123210  0.01769730    -0.73900
O67         O  0.23507690  0.26340313  0.08305370    -0.74700
O68         O  0.23465291  0.19617221  0.47669306    -0.74100
O69         O  0.26243265  0.22087377  0.08096548    -0.74500
O70         O  0.32423476  0.21532942  0.04042798    -0.74500
O71         O  0.33505538  0.25477427  0.01244800    -0.74200
C72         C  0.28350401  0.33269818  0.03481315     0.77500
C73         C  0.18230210  0.27694895  0.50150982     0.78000
C74         C  0.27847716  0.27162481  0.43422212     0.77000
C75         C  0.24458419  0.17487297  0.49382172     0.77400
C76         C  0.24571342  0.23938709  0.09546979     0.78500
C77         C  0.34345166  0.23236814  0.02861209     0.77600
Zn78       Zn  0.49187357  0.26010768  0.29734188     1.49700
Zn79       Zn  0.05036486  0.29409373  0.27541163     1.49400
Zn80       Zn  0.02637507  0.23666242  0.24012816     1.49100
Zn81       Zn  0.48744138  0.30033623  0.23820931     1.49500
O82         O  0.01398735  0.27282554  0.26250775    -1.83700
O83         O  0.01218737  0.27483856  0.33529988    -0.74300
O84         O  0.08838160  0.27396710  0.26157931    -0.74200
O85         O  0.01202084  0.19854982  0.25947527    -0.73700
O86         O  0.05280014  0.29884664  0.32041289    -0.74400
O87         O  0.48831274  0.21499874  0.30019865    -0.74000
O88         O  0.07205726  0.23416424  0.23584970    -0.74500
O89         O  0.48130504  0.28172643  0.19711641    -0.73900
O90         O  0.05087657  0.33514704  0.25843869    -0.74700
O91         O  0.00707892  0.23762809  0.19867921    -0.74100
O92         O  0.00765976  0.34112122  0.23236122    -0.74500
O93         O  0.44538019  0.30624715  0.25598221    -0.74500
O94         O  0.44966059  0.27676344  0.29626421    -0.74200
C95         C  0.03571150  0.28995260  0.34101449     0.77500
C96         C  0.09351922  0.25050900  0.24580641     0.78000
C97         C  0.49673777  0.19365051  0.28291718     0.77000
C98         C  0.48990882  0.25714671  0.18475652     0.77400
C99         C  0.03298924  0.35108687  0.24193499     0.78500
C100        C  0.43391840  0.29431988  0.27911656     0.77600
C101        C  0.10855207  0.47146418  0.21497548    -0.05400
C102        C  0.08783171  0.48838362  0.23298794     0.00600
C103        C  0.10131602  0.51011646  0.25391657    -0.08000
C104        C  0.13209902  0.01254516  0.25184018    -0.05400
C105        C  0.15241467  0.49509826  0.23782266     0.00500
C106        C  0.14012091  0.47361098  0.21750559    -0.07900
C107        C  0.15966782  0.45313415  0.19807677     0.62500
H108        H  0.09946372  0.45585605  0.19840802     0.13100
H109        H  0.14171777  0.03100750  0.26476205     0.13200
C110        C  0.08746773  0.02831935  0.27821616     0.62700
F111        F  0.14266227  0.43538715  0.17848122    -0.22500
F112        F  0.17703184  0.43401199  0.21645663    -0.19800
F113        F  0.17813812  0.47033301  0.18061085    -0.19500
F114        F  0.06084468  0.52116966  0.28992977    -0.19500
F115        F  0.08395595  0.05736330  0.26733230    -0.19900
F116        F  0.10721877  0.02925837  0.30316530    -0.22500
C117        C  0.05472587  0.39862039  0.25982890    -0.05400
C118        C  0.04168195  0.38241906  0.23580164     0.00600
C119        C  0.04009006  0.39555536  0.20685678    -0.08000
C120        C  0.04576566  0.42649681  0.20442894    -0.05400
C121        C  0.05277800  0.44521408  0.22989650     0.00500
C122        C  0.06236940  0.42915899  0.25720749    -0.07900
C123        C  0.08131904  0.44201161  0.28347715     0.62500
H124        H  0.05876828  0.38686879  0.28105773     0.13100
H125        H  0.04565844  0.43551249  0.18191589     0.13200
C126        C  0.53348167  0.37671365  0.17873525     0.62700
F127        F  0.08350157  0.42273050  0.30808906    -0.22500
F128        F  0.06896842  0.46831437  0.29387960    -0.19800
F129        F  0.11038308  0.44669680  0.27454768    -0.19500
F130        F  0.50457790  0.36571858  0.17854988    -0.19500
F131        F  0.05585389  0.35304372  0.17820508    -0.19900
F132        F  0.53655289  0.39314619  0.15241881    -0.22500
C133        C  0.01516778  0.49057111  0.14287083    -0.05400
C134        C  0.03768502  0.50436197  0.12697806     0.00600
C135        C  0.06390145  0.51349551  0.14307429    -0.08000
C136        C  0.06669395  0.50728983  0.17441184    -0.05400
C137        C  0.04551612  0.49017082  0.19077028     0.00500
C138        C  0.01765536  0.48415216  0.17397516    -0.07900
C139        C  0.48823391  0.47007675  0.18601781     0.62500
H140        H  0.49341183  0.48383621  0.13096215     0.13100
H141        H  0.08580705  0.51688732  0.18617308     0.13200
C142        C  0.08934659  0.52910341  0.12735579     0.62700
F143        F  0.46373604  0.48896477  0.17931718    -0.22500
F144        F  0.98971087  0.46536159  0.21530688    -0.19800
F145        F  0.48349590  0.44259092  0.17190537    -0.19500
F146        F  0.07881348  0.05515971  0.11755466    -0.19500
F147        F  0.09844628  0.51202735  0.10281348    -0.19900
F148        F  0.11432356  0.53287812  0.14644125    -0.22500
C149        C  0.22697329  0.12643568  0.51236128    -0.05400
C150        C  0.23602546  0.14306952  0.48766687     0.00600
C151        C  0.23600538  0.12918807  0.45887427    -0.08000
C152        C  0.22989532  0.09812302  0.45668021    -0.05400
C153        C  0.22444244  0.07948148  0.48226130     0.00500
C154        C  0.21907989  0.09584521  0.51020741    -0.07900
C155        C  0.20358695  0.08344886  0.53782680     0.62500
H156        H  0.22506768  0.13846000  0.53363649     0.13100
H157        H  0.22861613  0.08887776  0.43416439     0.13200
C158        C  0.24307522  0.14681011  0.43058632     0.62700
F159        F  0.20446068  0.10305897  0.56234178    -0.22500
F160        F  0.21743791  0.05737030  0.54759930    -0.19800
F161        F  0.17349589  0.07887320  0.53102160    -0.19500
F162        F  0.27352986  0.15985935  0.93623162    -0.19500
F163        F  0.22098742  0.16874841  0.42523706    -0.19900
F164        F  0.24427214  0.12859529  0.40507092    -0.22500
C165        C  0.21350918  0.02179868  0.38987195    -0.05400
C166        C  0.24241590  0.02778469  0.38015839     0.00600
C167        C  0.26474704  0.03570015  0.40216073    -0.08000
C168        C  0.25653729  0.03938794  0.43263496    -0.05400
C169        C  0.22702305  0.03438184  0.44299936     0.00500
C170        C  0.20644554  0.02090096  0.42087371    -0.07900
C171        C  0.17953636  0.00093211  0.42676585     0.62500
H172        H  0.19698829  0.01435493  0.37297645     0.13100
H173        H  0.27337634  0.04696760  0.44884905     0.13200
C174        C  0.29684447  0.04179052  0.39339623     0.62700
F175        F  0.17992881  0.97630961  0.40731599    -0.22500
F176        F  0.15287264  0.01682271  0.42107758    -0.19800
F177        F  0.17981414  0.98877569  0.45527767    -0.19500
F178        F  0.29640554  0.06265267  0.37023031    -0.19500
F179        F  0.31072807  0.01533862  0.38394867    -0.19900
F180        F  0.31398273  0.05321801  0.41734970    -0.22500
C181        C  0.16653967  0.05700004  0.46853542    -0.05400
C182        C  0.18737948  0.03835852  0.48567900     0.00600
C183        C  0.17364339  0.02077531  0.00902987    -0.08000
C184        C  0.14193800  0.02001846  0.01011134    -0.05400
C185        C  0.12366341  0.03793556  0.49377068     0.00500
C186        C  0.13532859  0.05757580  0.47263299    -0.07900
C187        C  0.11474732  0.07900299  0.45453532     0.62500
H188        H  0.17498800  0.07126765  0.45103051     0.13100
H189        H  0.13113916  0.00449789  0.02508875     0.13200
C190        C  0.18897310  0.99751805  0.03037059     0.62700
F191        F  0.13082954  0.09835925  0.43686634    -0.22500
F192        F  0.09772812  0.09629038  0.47412845    -0.19800
F193        F  0.09563658  0.06273293  0.43567500    -0.19500
F194        F  0.21592252  0.00620179  0.04295002    -0.19500
F195        F  0.19253945  0.97061197  0.01508897    -0.19900
F196        F  0.17130859  0.99180886  0.05504570    -0.22500
C197        C  0.99738129  0.27170054  0.13322710    -0.05400
C198        C  0.48299418  0.25272537  0.15250417     0.00600
C199        C  0.46350758  0.23072945  0.14092704    -0.08000
C200        C  0.46104988  0.22692811  0.10924590    -0.05400
C201        C  0.47798137  0.24398148  0.08860155     0.00500
C202        C  0.99348429  0.27021127  0.10168402    -0.07900
C203        C  0.00444011  0.29962287  0.08749807     0.62500
H204        H  0.01096599  0.28942964  0.14336957     0.13100
H205        H  0.44773332  0.20849714  0.10059115     0.13200
C206        C  0.44659646  0.21062442  0.16204834     0.62700
F207        F  0.99208897  0.32401376  0.10289747    -0.22500
F208        F  0.99650586  0.30429972  0.05787351    -0.19800
F209        F  0.03545300  0.30141569  0.09079532    -0.19500
F210        F  0.43002660  0.22818484  0.18176941    -0.19500
F211        F  0.46687692  0.19273060  0.17865060    -0.19900
F212        F  0.42693501  0.19199877  0.14629732    -0.22500
C213        C  0.42525068  0.20495019  0.04226809    -0.05400
C214        C  0.44111398  0.23277652  0.04624369     0.00600
C215        C  0.42166765  0.25965021  0.04595823    -0.08000
C216        C  0.39034389  0.25675063  0.04202659    -0.05400
C217        C  0.37633106  0.22968445  0.03588803     0.00500
C218        C  0.39395618  0.20312411  0.03553453    -0.07900
C219        C  0.37996621  0.17312355  0.02737143     0.62500
H220        H  0.43667280  0.18361369  0.04555954     0.13100
H221        H  0.37558189  0.27637166  0.04363577     0.13200
C222        C  0.43129723  0.29214128  0.05005692     0.62700
F223        F  0.40133649  0.14998076  0.02627621    -0.22500
F224        F  0.36574234  0.17521351  0.99910646    -0.19800
F225        F  0.35909958  0.16568842  0.04861696    -0.19500
F226        F  0.45155757  0.29912917  0.02866303    -0.19500
F227        F  0.44222943  0.29665931  0.07904309    -0.19900
F228        F  0.40794105  0.31310748  0.04593499    -0.22500
C229        C  0.48631957  0.18639055  0.01971643    -0.05400
C230        C  0.48895899  0.19719946  0.05038303     0.00600
C231        C  0.49836682  0.17417025  0.07235829    -0.08000
C232        C  0.49861365  0.14341150  0.06328955    -0.05400
C233        C  0.49389572  0.13385266  0.03335284     0.00500
C234        C  0.48874334  0.15585763  0.01093226    -0.07900
C235        C  0.48911510  0.14699871  0.47784531     0.62500
H236        H  0.47911682  0.20157691  0.00211897     0.13100
H237        H  0.50373524  0.12608355  0.08007470     0.13200
C238        C  0.51004519  0.17749906  0.10504860     0.62700
F239        F  0.49042617  0.17185559  0.45910885    -0.22500
F240        F  0.46239865  0.13249466  0.47136333    -0.19800
F241        F  0.01714872  0.12827307  0.47329197    -0.19500
F242        F  0.48873618  0.16687052  0.12436904    -0.19500
F243        F  0.51767433  0.20592230  0.11357142    -0.19900
F244        F  0.53614745  0.16013045  0.10928574    -0.22500
C245        C  0.28287126  0.01274601  0.03632576    -0.05400
C246        C  0.28339330  0.48036058  0.03173800     0.00600
C247        C  0.26296976  0.47064199  0.00710963    -0.08000
C248        C  0.24468311  0.99378121  0.99073885    -0.05400
C249        C  0.24586138  0.02398543  0.49616724     0.00500
C250        C  0.26880859  0.03453210  0.01720659    -0.07900
C251        C  0.28403694  0.06445106  0.51859574     0.62500
H252        H  0.29795074  0.02115065  0.05396278     0.13100
H253        H  0.22949666  0.98666179  0.97283207     0.13200
C254        C  0.25608232  0.43829056  0.99563444     0.62700
F255        F  0.31464486  0.06115260  0.52532003    -0.22500
F256        F  0.27191516  0.08170911  0.54149229    -0.19800
F257        F  0.28237060  0.07970232  0.49152033    -0.19500
F258        F  0.22789100  0.43681993  0.98142331    -0.19500
F259        F  0.25521160  0.41710238  0.01808133    -0.19900
F260        F  0.27611419  0.42928081  0.97398918    -0.22500
C261        C  0.26823249  0.47665894  0.13356813    -0.05400
C262        C  0.29098914  0.49067310  0.15052770     0.00600
C263        C  0.31781634  0.49755566  0.13584927    -0.08000
C264        C  0.32034158  0.49054987  0.10467185    -0.05400
C265        C  0.29899450  0.47304326  0.08754707     0.00500
C266        C  0.27090517  0.46834885  0.10285881    -0.07900
C267        C  0.24231449  0.45407620  0.09035134     0.62500
H268        H  0.24731060  0.47213867  0.14472491     0.13100
H269        H  0.33993507  0.49894330  0.09401698     0.13200
C270        C  0.34427138  0.01251402  0.15197545     0.62700
F271        F  0.21804897  0.47344438  0.09496595    -0.22500
F272        F  0.23734607  0.42755613  0.10566281    -0.19800
F273        F  0.24274910  0.44775837  0.06031887    -0.19500
F274        F  0.35112427  0.49377692  0.17887135    -0.19500
F275        F  0.33723879  0.04181064  0.16033158    -0.19900
F276        F  0.36981400  0.01297485  0.13467303    -0.22500
C277        C  0.30806589  0.37966602  0.01948732    -0.05400
C278        C  0.29283687  0.36405735  0.04176382     0.00600
C279        C  0.28871407  0.37807910  0.07007245    -0.08000
C280        C  0.29607109  0.40859081  0.07337728    -0.05400
C281        C  0.30609322  0.42667777  0.04925347     0.00500
C282        C  0.31596542  0.41027185  0.02267633    -0.07900
C283        C  0.33582200  0.42272691  0.99786958     0.62500
H284        H  0.31342692  0.36749816  0.99898084     0.13100
H285        H  0.29386694  0.41798570  0.09556155     0.13200
C286        C  0.27730526  0.36088681  0.09710740     0.62700
F287        F  0.33755519  0.40368140  0.47358511    -0.22500
F288        F  0.36506231  0.42553035  0.00883429    -0.19800
F289        F  0.32577445  0.45001904  0.48795033    -0.19500
F290        F  0.29331963  0.33396907  0.10058744    -0.19500
F291        F  0.24699225  0.35508445  0.09270674    -0.19900
F292        F  0.28065467  0.37695492  0.12392508    -0.22500
C293        C  0.39626187  0.46987551  0.05582289    -0.05400
C294        C  0.40084872  0.49160768  0.03339690     0.00600
C295        C  0.37493888  0.00448984  0.01695996    -0.08000
C296        C  0.34661354  0.49272191  0.02394685    -0.05400
C297        C  0.34099249  0.47100196  0.04675216     0.00500
C298        C  0.36753409  0.45874649  0.06271449    -0.07900
C299        C  0.36770686  0.43210867  0.08489233     0.62500
H300        H  0.41606894  0.46067010  0.06757864     0.13100
H301        H  0.32825198  0.00159982  0.00864701     0.13200
C302        C  0.37750581  0.02778709  0.99189143     0.62700
F303        F  0.39489617  0.42925782  0.10097488    -0.22500
F304        F  0.36374226  0.40550485  0.06908593    -0.19800
F305        F  0.34595136  0.43499332  0.10629799    -0.19500
F306        F  0.39731171  0.01217058  0.46892021    -0.19500
F307        F  0.38903451  0.05416560  0.00385313    -0.19900
F308        F  0.34997374  0.03509405  0.97793465    -0.22500
C309        C  0.25383263  0.14274598  0.26133155    -0.05400
C310        C  0.23678993  0.12329146  0.24357300     0.00600
C311        C  0.21522436  0.13474518  0.22268228    -0.08000
C312        C  0.21327978  0.16604716  0.21853176    -0.05400
C313        C  0.22998373  0.18720808  0.23658432     0.00500
C314        C  0.25084934  0.17436529  0.25941605    -0.07900
C315        C  0.27075095  0.19120290  0.28233337     0.62500
H316        H  0.26985921  0.13220069  0.27717005     0.13100
H317        H  0.19744426  0.17452407  0.20136521     0.13200
C318        C  0.19421081  0.11396886  0.20519092     0.62700
F319        F  0.25347761  0.20826919  0.30100731    -0.22500
F320        F  0.29088466  0.20871731  0.26817470    -0.19800
F321        F  0.28787150  0.17226299  0.30124605    -0.19500
F322        F  0.17726783  0.09816897  0.22536336    -0.19500
F323        F  0.21080313  0.09379323  0.18811150    -0.19900
F324        F  0.17451074  0.12972978  0.18583166    -0.22500
C325        C  0.16886210  0.20874577  0.24393445    -0.05400
C326        C  0.18882548  0.23024201  0.23181719     0.00600
C327        C  0.17523642  0.25933119  0.22412719    -0.08000
C328        C  0.14415440  0.26448053  0.22885264    -0.05400
C329        C  0.12531941  0.24222503  0.23956845     0.00500
C330        C  0.13774012  0.21372984  0.24691403    -0.07900
C331        C  0.11835355  0.18881662  0.25910598     0.62500
H332        H  0.17756753  0.18798131  0.25334111     0.13100
H333        H  0.13422097  0.28652025  0.22383533     0.13200
C334        C  0.19090780  0.28659176  0.21119584     0.62700
F335        F  0.13519519  0.16336227  0.26727572    -0.22500
F336        F  0.09741502  0.18032667  0.23703241    -0.19800
F337        F  0.10350525  0.19894606  0.28446691    -0.19500
F338        F  0.17557296  0.29580190  0.18495852    -0.19500
F339        F  0.22044659  0.28181996  0.20381548    -0.19900
F340        F  0.18989363  0.30994758  0.23204196    -0.22500
C341        C  0.20593612  0.22836266  0.17015271    -0.05400
C342        C  0.23021492  0.22175847  0.19126962     0.00600
C343        C  0.25814181  0.21271154  0.17675957    -0.08000
C344        C  0.26247421  0.22162671  0.14645484    -0.05400
C345        C  0.23907419  0.23282995  0.12770303     0.00500
C346        C  0.20978194  0.23407731  0.13913264    -0.07900
C347        C  0.18237603  0.24014069  0.11842939     0.62500
H348        H  0.18305177  0.22846641  0.17731844     0.13100
H349        H  0.28427706  0.21860547  0.13635457     0.13200
C350        C  0.28276420  0.19138205  0.18999577     0.62700
F351        F  0.15564530  0.23394147  0.13238322    -0.22500
F352        F  0.18397768  0.22205223  0.09290678    -0.19800
F353        F  0.18144245  0.27009448  0.10991357    -0.19500
F354        F  0.27098286  0.16376298  0.19643768    -0.19500
F355        F  0.29657239  0.20305434  0.21531586    -0.19900
F356        F  0.30552908  0.18557461  0.16980574    -0.22500
C357        C  0.03933916  0.28163441  0.02015899    -0.05400
C358        C  0.03027777  0.28510485  0.49043453     0.00600
C359        C  0.00247259  0.26981993  0.48128412    -0.08000
C360        C  0.48582835  0.25649429  0.00331493    -0.05400
C361        C  0.49698189  0.25001484  0.03289661     0.00500
C362        C  0.02839208  0.25807661  0.03789068    -0.07900
C363        C  0.05126431  0.24156021  0.05874755     0.62500
H364        H  0.05813270  0.29425703  0.02932943     0.13100
H365        H  0.46336913  0.24913455  0.99710855     0.13200
C366        C  0.48664844  0.26557611  0.44954172     0.62700
F367        F  0.05281645  0.21144880  0.05082691    -0.22500
F368        F  0.04488045  0.24420231  0.08867306    -0.19800
F369        F  0.07981305  0.25305040  0.05633228    -0.19500
F370        F  0.49861172  0.27874419  0.42499935    -0.19500
F371        F  0.45712765  0.27627647  0.45065739    -0.19900
F372        F  0.48588738  0.23498164  0.44347062    -0.22500
C373        C  0.09704984  0.27245862  0.49550166    -0.05400
C374        C  0.08776077  0.29883306  0.47902163     0.00600
C375        C  0.11241665  0.31689483  0.46834367    -0.08000
C376        C  0.14235365  0.31022572  0.47886033    -0.05400
C377        C  0.14994294  0.28468514  0.49588200     0.00500
C378        C  0.12719033  0.26478984  0.50328674    -0.07900
C379        C  0.13636264  0.23630740  0.01738633     0.62500
H380        H  0.08100172  0.25586830  0.50086719     0.13100
H381        H  0.16096424  0.32374913  0.47193624     0.13200
C382        C  0.10978166  0.34062316  0.44315678     0.62700
F383        F  0.11165460  0.21844224  0.02152565    -0.22500
F384        F  0.14937574  0.24263615  0.04545801    -0.19800
F385        F  0.15574100  0.21865707  0.50319101    -0.19500
F386        F  0.13615963  0.35643346  0.44038701    -0.19500
F387        F  0.08764759  0.36203292  0.44800192    -0.19900
F388        F  0.10451077  0.32639219  0.41569072    -0.22500
C389        C  0.05431864  0.27163345  0.38977419    -0.05400
C390        C  0.04369468  0.29592455  0.37270218     0.00600
C391        C  0.03841401  0.32393458  0.38639209    -0.08000
C392        C  0.04256808  0.32627327  0.41789351    -0.05400
C393        C  0.05018990  0.30119895  0.43687885     0.00500
C394        C  0.05753700  0.27290111  0.42152744    -0.07900
C395        C  0.06771334  0.24298113  0.43617610     0.62500
H396        H  0.05931871  0.25098511  0.37754150     0.13100
H397        H  0.03961122  0.34835217  0.42726503     0.13200
C398        C  0.02796915  0.35108340  0.36767379     0.62700
F399        F  0.06258052  0.21867900  0.41700276    -0.22500
F400        F  0.05225852  0.23665760  0.46178592    -0.19800
F401        F  0.09837322  0.24324135  0.44234893    -0.19500
F402        F  0.00080319  0.34501604  0.35294724    -0.19500
F403        F  0.04922690  0.35728156  0.34637304    -0.19900
F404        F  0.02389628  0.37662064  0.38534956    -0.22500
C405        C  0.06426862  0.35522411  0.50311657    -0.05400
C406        C  0.04368410  0.33959934  0.48345381     0.00600
C407        C  0.01586529  0.35640352  0.47623627    -0.08000
C408        C  0.01513022  0.38797834  0.47988829    -0.05400
C409        C  0.03751482  0.40332527  0.49562600     0.00500
C410        C  0.06167421  0.38661513  0.50916970    -0.07900
C411        C  0.08439174  0.40196945  0.53004417     0.62500
H412        H  0.08293795  0.34298251  0.51376201     0.13100
H413        H  0.49717664  0.40112383  0.96910267     0.13200
C414        C  0.98572252  0.34294336  0.46686519     0.62700
F415        F  0.10784550  0.38260918  0.53895850    -0.22500
F416        F  0.07014320  0.41214044  0.55572379    -0.19800
F417        F  0.09652494  0.42623252  0.51544605    -0.19500
F418        F  0.97731008  0.32333411  0.98740115    -0.19500
F419        F  0.48655274  0.33051532  0.43783609    -0.19900
F420        F  0.46276271  0.36548067  0.46387306    -0.22500
C421        C  0.49302814  0.01373473  0.28342159    -0.05400
C422        C  0.49323952  0.04499803  0.27693819     0.00600
C423        C  0.01478795  0.05279737  0.25398054    -0.08000
C424        C  0.03055390  0.02953653  0.23855109    -0.05400
C425        C  0.03045990  0.49980831  0.24502714     0.00500
C426        C  0.00958201  0.49073501  0.26799259    -0.07900
C427        C  0.50089298  0.45915718  0.27967399     0.62500
H428        H  0.47963738  0.50687087  0.30234281     0.13100
H429        H  0.04546265  0.03614277  0.22108773     0.13200
C430        C  0.02062637  0.08472946  0.24182350     0.62700
F431        F  0.47078653  0.45895519  0.28722325    -0.22500
F432        F  0.01669482  0.45134914  0.30490177    -0.19800
F433        F  0.50322647  0.43635014  0.25889593    -0.19500
F434        F  0.04687023  0.08572541  0.22560687    -0.19500
F435        F  0.02446855  0.10599787  0.26421357    -0.19900
F436        F  0.99785309  0.09358890  0.22181690    -0.22500
C437        C  0.48373628  0.11737825  0.31903402    -0.05400
C438        C  0.47258164  0.10008634  0.29392587     0.00600
C439        C  0.46152189  0.11803446  0.26823671    -0.08000
C440        C  0.97291761  0.14695403  0.26517912    -0.05400
C441        C  0.48735389  0.16246798  0.28884874     0.00500
C442        C  0.49179951  0.14783468  0.31686035    -0.07900
C443        C  0.50531534  0.16418461  0.34423903     0.62500
H444        H  0.48574129  0.10770324  0.34118744     0.13100
H445        H  0.96774882  0.15978128  0.24478718     0.13200
C446        C  0.93918167  0.10763049  0.24413409     0.62700
F447        F  0.51047014  0.14516859  0.36871936    -0.22500
F448        F  0.48575578  0.18696509  0.35318711    -0.19800
F449        F  0.53257449  0.17645412  0.33691971    -0.19500
F450        F  0.94549596  0.08003275  0.23192040    -0.19500
F451        F  0.93685289  0.12745306  0.21995126    -0.19900
F452        F  0.91120097  0.10743782  0.25692668    -0.22500
C453        C  0.41501382  0.07255187  0.30614036    -0.05400
C454        C  0.43672782  0.05629919  0.28884508     0.00600
C455        C  0.42458249  0.03354890  0.26804950    -0.08000
C456        C  0.39457935  0.02491926  0.27122225    -0.05400
C457        C  0.37400841  0.04209174  0.28715267     0.00500
C458        C  0.38389860  0.06704285  0.30411442    -0.07900
C459        C  0.36167672  0.08780371  0.31967852     0.62500
H460        H  0.42275097  0.09008759  0.32141163     0.13100
H461        H  0.38582960  0.00630625  0.25773029     0.13200
C462        C  0.43720580  0.01903860  0.23923775     0.62700
F463        F  0.37598206  0.10966839  0.33698184    -0.22500
F464        F  0.34417780  0.07121220  0.33851219    -0.19800
F465        F  0.34329717  0.10208712  0.29807278    -0.19500
F466        F  0.44079072  0.98837502  0.24355105    -0.19500
F467        F  0.46339635  0.03022556  0.22886638    -0.20700
F468        F  0.41636236  0.02333951  0.21550249    -0.22500
C469        C  0.01074935  0.04890772  0.38025865    -0.05400
C470        C  0.48607042  0.03685549  0.39564619     0.00600
C471        C  0.45872027  0.03129579  0.37988735    -0.08000
C472        C  0.45602306  0.03812989  0.34858657    -0.05400
C473        C  0.47833784  0.05362635  0.33200350     0.00500
C474        C  0.00811841  0.05674520  0.34921561    -0.07900
C475        C  0.03731941  0.06907065  0.33782651     0.62500
H476        H  0.03191040  0.05258715  0.39259234     0.13100
H477        H  0.43597828  0.03023431  0.33720083     0.13200
C478        C  0.43250108  0.01767601  0.39603351     0.62700
F479        F  0.06025338  0.04787092  0.34257705    -0.22500
F480        F  0.04471210  0.09480741  0.35396483    -0.19800
F481        F  0.03632566  0.07616801  0.30797045    -0.19500
F482        F  0.42206372  0.03789809  0.41739805    -0.19500
F483        F  0.44181609  0.99122848  0.41028287    -0.19900
F484        F  0.40865938  0.01112172  0.37631319    -0.22500
C485        C  0.25266128  0.28166688  0.28810506    -0.05400
C486        C  0.28367247  0.28375624  0.28226657     0.00600
C487        C  0.29179649  0.27195902  0.25273225    -0.08000
C488        C  0.26957310  0.25628471  0.23535048    -0.05400
C489        C  0.24268571  0.24507578  0.24703668     0.00500
C490        C  0.23386859  0.25947139  0.27510433    -0.07900
C491        C  0.20659331  0.25208555  0.29424519     0.62500
H492        H  0.24389409  0.29512087  0.30635963     0.13100
H493        H  0.27413590  0.25166655  0.21215332     0.13200
C494        C  0.32257989  0.27394067  0.23764501     0.62700
F495        F  0.21219663  0.25875992  0.32458065    -0.22500
F496        F  0.20000827  0.22193487  0.29352225    -0.19800
F497        F  0.18168483  0.26918074  0.28516033    -0.19500
F498        F  0.34271708  0.25359241  0.25086168    -0.19500
F499        F  0.33412962  0.30238892  0.23854261    -0.19900
F500        F  0.32101571  0.26647048  0.20712504    -0.22500
C501        C  0.29048416  0.34772951  0.27036214    -0.05400
C502        C  0.28921236  0.33677021  0.30047235     0.00600
C503        C  0.27601761  0.35774743  0.32182533    -0.08000
C504        C  0.27654872  0.38880811  0.31519378    -0.05400
C505        C  0.28217053  0.39935749  0.28619717     0.00500
C506        C  0.28780093  0.37837174  0.26285184    -0.07900
C507        C  0.29245555  0.38818364  0.23031535     0.62500
H508        H  0.29502853  0.33221237  0.25241112     0.13100
H509        H  0.26949169  0.40506725  0.33216003     0.13200
C510        C  0.25752381  0.35093051  0.34955552     0.62700
F511        F  0.30296085  0.36470609  0.21247283    -0.22500
F512        F  0.31341019  0.41083592  0.22980003    -0.19800
F513        F  0.26542705  0.39856062  0.21745645    -0.19500
F514        F  0.27343629  0.35880077  0.37570742    -0.19500
F515        F  0.24847322  0.32166849  0.35144539    -0.19900
F516        F  0.23114995  0.36823628  0.34834028    -0.22500
C517        C  0.38710025  0.27403750  0.29858031    -0.05400
C518        C  0.40127304  0.29863568  0.28595271     0.00600
C519        C  0.38454857  0.32578894  0.28196298    -0.08000
C520        C  0.35410014  0.32696334  0.29062995    -0.05400
C521        C  0.33813140  0.30124581  0.30042907     0.00500
C522        C  0.35643149  0.27433584  0.30602689    -0.07900
C523        C  0.34558426  0.24548661  0.32051222     0.62500
H524        H  0.40070759  0.25384371  0.30252623     0.13100
H525        H  0.34295558  0.34857789  0.28921593     0.13200
C526        C  0.39867342  0.35360548  0.26883871     0.62700
F527        F  0.36523575  0.22124974  0.31634616    -0.22500
F528        F  0.31856227  0.23713132  0.30782349    -0.19800
F529        F  0.34322273  0.24948238  0.35140762    -0.19500
F530        F  0.40584503  0.34815636  0.23899365    -0.19500
F531        F  0.42453257  0.36063150  0.28542862    -0.19900
F532        F  0.37935660  0.37851191  0.26925019    -0.22500
C533        C  0.28195008  0.26851001  0.34782377    -0.05400
C534        C  0.29960726  0.29391520  0.34060094     0.00600
C535        C  0.31389807  0.30892910  0.36630929    -0.08000
C536        C  0.30516628  0.30143442  0.39594145    -0.05400
C537        C  0.28511697  0.27832328  0.40191499     0.00500
C538        C  0.27432557  0.26065829  0.37745086    -0.07900
C539        C  0.25541589  0.23292625  0.38252264     0.62500
H540        H  0.27411149  0.25370163  0.33032000     0.13100
H541        H  0.31457181  0.31345636  0.41525044     0.13200
C542        C  0.33986513  0.33110122  0.36442573     0.62700
F543        F  0.25094270  0.21616005  0.35653749    -0.22500
F544        F  0.22728154  0.24159265  0.39258172    -0.19800
F545        F  0.26985968  0.21419486  0.40354087    -0.19500
F546        F  0.34672532  0.34437778  0.39218280    -0.19500
F547        F  0.33330144  0.35435924  0.34469251    -0.19900
F548        F  0.36568879  0.31595940  0.35570730    -0.22500
C549        C  0.30390449  0.30334697  0.80633770    -0.02100
C550        C  0.47041755  0.06295603  0.79736881    -0.02100
C551        C  0.05271186  0.30622606  0.97068604    -0.02100
C552        C  0.22373634  0.22148924  0.72731163    -0.02100
C553        C  0.30695139  0.46193792  0.55393794    -0.02100
C554        C  0.47670930  0.23137986  0.55499375    -0.02100
C555        C  0.22068210  0.04497963  0.97814169    -0.02100
C556        C  0.05267454  0.47890286  0.72514830    -0.02100
Zn557      Zn  0.03773843  0.04441218  0.53759111     1.49700
Zn558      Zn  0.03401762  0.00036992  0.97674988     1.49400
Zn559      Zn  0.99904787  0.48474972  0.53640127     1.49100
Zn560      Zn  0.47687619  0.04219303  0.49555197     1.49500
O561        O  0.01218834  0.01821169  0.51188386    -1.83700
O562        O  0.07928234  0.04589080  0.52101901    -0.74300
O563        O  0.04033561  0.45488284  0.98087441    -0.74200
O564        O  0.01349611  0.48958067  0.57957533    -0.73700
O565        O  0.07590866  0.01719753  0.97701455    -0.74400
O566        O  0.04184142  0.02981123  0.58095334    -0.74000
O567        O  0.01611704  0.44442626  0.52266959    -0.74500
O568        O  0.43857844  0.02315482  0.51134845    -0.73900
O569        O  0.01354791  0.01284861  0.93659900    -0.74700
O570        O  0.45440479  0.48256199  0.53757008    -0.74100
O571        O  0.47455464  0.04155017  0.94870383    -0.74500
O572        O  0.47907888  0.08683423  0.51013409    -0.74500
O573        O  0.02128691  0.08707778  0.53963128    -0.74200
C574        C  0.09045250  0.03376769  0.99570179     0.77500
C575        C  0.03198067  0.43592068  0.00048737     0.78000
C576        C  0.03016302  0.50828027  0.59373605     0.77000
C577        C  0.43296399  0.49969027  0.52751027     0.77400
C578        C  0.49110523  0.02908841  0.92877988     0.78500
C579        C  0.49815683  0.10081285  0.52706248     0.77600
Zn580      Zn  0.22940340  0.03450858  0.78127145     1.49700
Zn581      Zn  0.24998499  0.47943163  0.73896357     1.49400
Zn582      Zn  0.28687396  0.03831625  0.73842796     1.49100
Zn583      Zn  0.28814540  0.99677742  0.79917480     1.49500
O584        O  0.26355719  0.01224673  0.76446836    -1.83700
O585        O  0.19102389  0.01729958  0.76504011    -0.74300
O586        O  0.26771551  0.47977165  0.69746343    -0.74200
O587        O  0.26561809  0.07857250  0.73346950    -0.73700
O588        O  0.20464671  0.48123672  0.73204780    -0.74400
O589        O  0.22860724  0.07715904  0.76650685    -0.74000
O590        O  0.29364611  0.02080041  0.69582228    -0.74500
O591        O  0.32979537  0.01465911  0.79867883    -0.73900
O592        O  0.26182879  0.44009932  0.75806610    -0.74700
O593        O  0.32738992  0.04565672  0.75890816    -0.74100
O594        O  0.29166130  0.45094434  0.79794872    -0.74500
O595        O  0.27126633  0.00911162  0.83989215    -0.74500
O596        O  0.22943643  0.03493565  0.82781937    -0.74200
C597        C  0.18452569  0.49748175  0.74442796     0.77500
C598        C  0.28445042  0.49762619  0.68337625     0.78000
C599        C  0.24355503  0.09094775  0.74690065     0.77000
C600        C  0.34142869  0.03443296  0.78197424     0.77400
C601        C  0.27883058  0.43184348  0.78034110     0.78500
C602        C  0.24805895  0.02419630  0.84777644     0.77600
Zn603      Zn  0.29740443  0.27469725  0.49991025     1.49700
Zn604      Zn  0.23963887  0.28110949  0.54109086     1.49400
Zn605      Zn  0.23812651  0.24258693  0.97937182     1.49100
Zn606      Zn  0.27777843  0.21755342  0.53755728     1.49500
O607        O  0.26283041  0.25360641  0.51485301    -1.83700
O608        O  0.30072872  0.31615248  0.51786246    -0.74300
O609        O  0.19629147  0.28752893  0.52474896    -0.74200
O610        O  0.25566607  0.25757239  0.94063198    -0.73700
O611        O  0.25990906  0.32185309  0.54524920    -0.74400
O612        O  0.29785876  0.27954622  0.95502741    -0.74000
O613        O  0.19613599  0.26071827  0.98132117    -0.74500
O614        O  0.26075105  0.18023051  0.51757078    -0.73900
O615        O  0.23741879  0.26324448  0.58309841    -0.74700
O616        O  0.23493646  0.19689696  0.97696815    -0.74100
O617        O  0.26321130  0.21980366  0.58102518    -0.74500
O618        O  0.32422620  0.21310247  0.53934201    -0.74500
O619        O  0.33501762  0.25247340  0.51119058    -0.74200
C620        C  0.28426899  0.33211062  0.53507552     0.77500
C621        C  0.18284057  0.27836093  0.99969926     0.78000
C622        C  0.27954819  0.27124692  0.93416349     0.77000
C623        C  0.24519661  0.17573426  0.99407064     0.77400
C624        C  0.24738209  0.23905100  0.59559928     0.78500
C625        C  0.34342883  0.22986710  0.52713909     0.77600
Zn626      Zn  0.49271930  0.25908422  0.79805897     1.49700
Zn627      Zn  0.04962966  0.29307971  0.77450409     1.49400
Zn628      Zn  0.02580793  0.23596663  0.74002734     1.49100
Zn629      Zn  0.48767204  0.29864288  0.73843036     1.49500
O630        O  0.01296945  0.27196118  0.76241911    -1.83700
O631        O  0.01170521  0.27521005  0.83479890    -0.74300
O632        O  0.08787057  0.27312182  0.76106063    -0.74200
O633        O  0.01167908  0.19807566  0.75994398    -0.73700
O634        O  0.05230669  0.29880490  0.81918255    -0.74400
O635        O  0.48877038  0.21391535  0.80163469    -0.74000
O636        O  0.07175192  0.23330006  0.73538373    -0.74500
O637        O  0.48083316  0.28037509  0.69746328    -0.73900
O638        O  0.04996497  0.33351871  0.75681255    -0.74700
O639        O  0.00598722  0.23715948  0.69872905    -0.74100
O640        O  0.00595166  0.34006725  0.73225123    -0.74500
O641        O  0.44613251  0.30511207  0.75652544    -0.74500
O642        O  0.45071022  0.27628696  0.79726125    -0.74200
C643        C  0.03529562  0.29036472  0.84001787     0.77500
C644        C  0.09319922  0.24969600  0.74534899     0.78000
C645        C  0.49637250  0.19244338  0.78408853     0.77000
C646        C  0.48893381  0.25575268  0.68491457     0.77400
C647        C  0.03173933  0.34963327  0.74091414     0.78500
C648        C  0.43491012  0.29369836  0.77999824     0.77600
C649        C  0.10776360  0.47033298  0.71379575    -0.05400
C650        C  0.08705788  0.48670214  0.73232192     0.00600
C651        C  0.10052705  0.50821595  0.75349054    -0.08000
C652        C  0.13054610  0.01235933  0.75419133    -0.05400
C653        C  0.15162729  0.49408593  0.73665400     0.00500
C654        C  0.13934815  0.47294209  0.71593299    -0.07900
C655        C  0.15891101  0.45354141  0.69548751     0.62500
H656        H  0.09865278  0.45485882  0.69710325     0.13100
H657        H  0.14013589  0.03049160  0.76759050     0.13200
C658        C  0.08514473  0.02868132  0.77916383     0.62700
F659        F  0.14189243  0.43643996  0.67529638    -0.22500
F660        F  0.17668078  0.43386523  0.71284771    -0.19800
F661        F  0.17700538  0.47172404  0.67862561    -0.19500
F662        F  0.06023620  0.51849987  0.79009318    -0.19500
F663        F  0.08101036  0.05734065  0.76747300    -0.19900
F664        F  0.10451210  0.03082525  0.80431469    -0.22500
C665        C  0.05411370  0.39670128  0.75871131    -0.05400
C666        C  0.04064433  0.38080133  0.73473651     0.00600
C667        C  0.03907451  0.39396412  0.70583870    -0.08000
C668        C  0.04501964  0.42486063  0.70349751    -0.05400
C669        C  0.05216489  0.44340429  0.72908574     0.00500
C670        C  0.06199299  0.42714135  0.75618028    -0.07900
C671        C  0.08134061  0.43965416  0.78231386     0.62500
H672        H  0.05819719  0.38482004  0.77986296     0.13100
H673        H  0.04486977  0.43399424  0.68101962     0.13200
C674        C  0.53180909  0.37540098  0.67841986     0.62700
F675        F  0.08408984  0.41998380  0.80658371    -0.22500
F676        F  0.06901219  0.46569411  0.79334662    -0.19800
F677        F  0.11019974  0.44464425  0.77294960    -0.19500
F678        F  0.50256231  0.36531967  0.67863894    -0.19500
F679        F  0.05400365  0.35109874  0.67722639    -0.19900
F680        F  0.53500955  0.39192897  0.65218786    -0.22500
C681        C  0.01369930  0.48936872  0.64272926    -0.05400
C682        C  0.03586026  0.50392414  0.62694931     0.00600
C683        C  0.06185936  0.51346952  0.64317895    -0.08000
C684        C  0.06506470  0.50649730  0.67431291    -0.05400
C685        C  0.04433394  0.48868976  0.69047391     0.00500
C686        C  0.01645075  0.48255247  0.67376845    -0.07900
C687        C  0.48793436  0.46917825  0.68591495     0.62500
H688        H  0.49313384  0.48466409  0.63131183     0.13100
H689        H  0.08407719  0.51616614  0.68617222     0.13200
C690        C  0.08660661  0.53051621  0.62785754     0.62700
F691        F  0.46372977  0.48872714  0.68026430    -0.22500
F692        F  0.98919524  0.46281762  0.71515507    -0.19800
F693        F  0.48262384  0.44248315  0.67050282    -0.19500
F694        F  0.07771747  0.05652590  0.61923474    -0.19500
F695        F  0.09656716  0.51429243  0.60309976    -0.19900
F696        F  0.11129347  0.53514696  0.64710718    -0.22500
C697        C  0.22714397  0.12760618  0.01274725    -0.05400
C698        C  0.23667704  0.14395368  0.98807567     0.00600
C699        C  0.23708263  0.12989354  0.95940110    -0.08000
C700        C  0.23018772  0.09904444  0.95719990    -0.05400
C701        C  0.22426254  0.08061081  0.98278053     0.00500
C702        C  0.21913701  0.09704653  0.01074401    -0.07900
C703        C  0.20413625  0.08467799  0.03868962     0.62500
H704        H  0.22516241  0.13980194  0.03391640     0.13100
H705        H  0.22888908  0.08978359  0.93469230     0.13200
C706        C  0.24566828  0.14702324  0.93129261     0.62700
F707        F  0.20488574  0.10458461  0.06296756    -0.22500
F708        F  0.21862042  0.05901440  0.04868938    -0.19800
F709        F  0.17409547  0.07942226  0.03230793    -0.19500
F710        F  0.27078015  0.16021237  0.43452148    -0.19500
F711        F  0.22427815  0.16935713  0.92483508    -0.19900
F712        F  0.24753625  0.12847540  0.90606650    -0.22500
C713        C  0.21295836  0.02272165  0.89038915    -0.05400
C714        C  0.24194649  0.02843197  0.88074589     0.00600
C715        C  0.26427996  0.03616092  0.90280789    -0.08000
C716        C  0.25601893  0.03994890  0.93324922    -0.05400
C717        C  0.22640100  0.03536707  0.94354603     0.00500
C718        C  0.20576779  0.02198355  0.92137172    -0.07900
C719        C  0.17852803  0.00238064  0.92706842     0.62500
H720        H  0.19642779  0.01538487  0.87345034     0.13100
H721        H  0.27293211  0.04727756  0.94948670     0.13200
C722        C  0.29646636  0.04193280  0.89415491     0.62700
F723        F  0.17902577  0.97749572  0.90796942    -0.22500
F724        F  0.15215913  0.01847392  0.92057166    -0.19800
F725        F  0.17803831  0.99061850  0.95572020    -0.19500
F726        F  0.29630909  0.06245618  0.87069186    -0.19500
F727        F  0.31022876  0.01525227  0.88517152    -0.19900
F728        F  0.31351514  0.05361772  0.91804858    -0.22500
C729        C  0.16605909  0.05837067  0.96860258    -0.05400
C730        C  0.18676052  0.03993927  0.98615663     0.00600
C731        C  0.17451547  0.01919002  0.50871572    -0.08000
C732        C  0.14287060  0.01958653  0.51122257    -0.05400
C733        C  0.12281056  0.03766364  0.99185040     0.00500
C734        C  0.13465703  0.05783268  0.97129883    -0.07900
C735        C  0.11419329  0.07777611  0.95139346     0.62500
H736        H  0.17472861  0.07281555  0.95135712     0.13100
H737        H  0.13207282  0.00440135  0.52651192     0.13200
C738        C  0.19021165  0.99508394  0.52881579     0.62700
F739        F  0.13025976  0.09928498  0.93638069    -0.22500
F740        F  0.09316419  0.09269952  0.96884238    -0.19800
F741        F  0.09930635  0.06020259  0.93002601    -0.19500
F742        F  0.21660903  0.00423021  0.54233900    -0.19500
F743        F  0.19499559  0.96928505  0.51204294    -0.19900
F744        F  0.17250617  0.98697999  0.55272214    -0.22500
C745        C  0.99499709  0.27172961  0.63384298    -0.05400
C746        C  0.48174244  0.25175664  0.65261804     0.00600
C747        C  0.46304337  0.22921823  0.64077849    -0.08000
C748        C  0.46073743  0.22570497  0.60905638    -0.05400
C749        C  0.47702295  0.24362538  0.58863591     0.00500
C750        C  0.99110117  0.27032319  0.60230670    -0.07900
C751        C  0.00155463  0.29998568  0.58820537     0.62500
H752        H  0.00830189  0.28963400  0.64405058     0.13100
H753        H  0.44803234  0.20695063  0.60015403     0.13200
C754        C  0.44639161  0.20863307  0.66164825     0.62700
F755        F  0.98838802  0.32408286  0.60339097    -0.22500
F756        F  0.99402617  0.30443410  0.55843862    -0.19800
F757        F  0.03245864  0.30253611  0.59195769    -0.19500
F758        F  0.42879196  0.22579069  0.68081261    -0.19500
F759        F  0.46683935  0.19150995  0.67885491    -0.19900
F760        F  0.42774087  0.18923625  0.64561079    -0.22500
C761        C  0.42572798  0.20358125  0.54133464    -0.05400
C762        C  0.44092216  0.23175021  0.54577620     0.00600
C763        C  0.42084236  0.25816652  0.54534456    -0.08000
C764        C  0.38968753  0.25456743  0.54123294    -0.05400
C765        C  0.37632196  0.22734797  0.53451495     0.00500
C766        C  0.39449570  0.20111187  0.53426267    -0.07900
C767        C  0.38117541  0.17080278  0.52611389     0.62500
H768        H  0.43764043  0.18248678  0.54447087     0.13100
H769        H  0.37448034  0.27380860  0.54321549     0.13200
C770        C  0.42948856  0.29091367  0.54944172     0.62700
F771        F  0.40295232  0.14798884  0.52572396    -0.22500
F772        F  0.36749990  0.17237233  0.49756660    -0.19800
F773        F  0.35999053  0.16323914  0.54698631    -0.19500
F774        F  0.44985197  0.29835861  0.52834627    -0.19500
F775        F  0.43971520  0.29574475  0.57859236    -0.19900
F776        F  0.40569407  0.31130382  0.54481461    -0.22500
C777        C  0.48795195  0.18636325  0.51974127    -0.05400
C778        C  0.48953364  0.19726598  0.55039901     0.00600
C779        C  0.49851554  0.17432800  0.57257389    -0.08000
C780        C  0.49819602  0.14346816  0.56388414    -0.05400
C781        C  0.49417286  0.13374634  0.53389780     0.00500
C782        C  0.49060355  0.15575665  0.51119620    -0.07900
C783        C  0.48501119  0.14718751  0.97767017     0.62500
H784        H  0.48164596  0.20155477  0.50175631     0.13100
H785        H  0.50288040  0.12627688  0.58093257     0.13200
C786        C  0.51139030  0.17809317  0.60472858     0.62700
F787        F  0.48451772  0.17210560  0.95888641    -0.22500
F788        F  0.45817776  0.13229586  0.97310839    -0.19800
F789        F  0.01487106  0.12823133  0.97150771    -0.19500
F790        F  0.49123743  0.16714111  0.62509023    -0.19500
F791        F  0.51861995  0.20680324  0.61263771    -0.19900
F792        F  0.53797473  0.16129200  0.60786497    -0.22500
C793        C  0.28336924  0.01183977  0.53621933    -0.05400
C794        C  0.28331498  0.48025783  0.53213144     0.00600
C795        C  0.26281118  0.47047034  0.50761782    -0.08000
C796        C  0.24631398  0.99266738  0.48983587    -0.05400
C797        C  0.24502887  0.02512156  0.99671034     0.00500
C798        C  0.26922886  0.03356022  0.51703577    -0.07900
C799        C  0.28407528  0.06523115  0.01843852     0.62500
H800        H  0.29818466  0.02038255  0.55400490     0.13100
H801        H  0.23173119  0.98545052  0.47147467     0.13200
C802        C  0.25629572  0.43806506  0.49611982     0.62700
F803        F  0.31467320  0.06155803  0.02498306    -0.22500
F804        F  0.27242218  0.08286753  0.04129180    -0.19800
F805        F  0.28243886  0.08031041  0.99127400    -0.19500
F806        F  0.22829180  0.43635529  0.48155633    -0.19500
F807        F  0.25532791  0.41692471  0.51861752    -0.19900
F808        F  0.27669278  0.42916207  0.47479322    -0.22500
C809        C  0.26772578  0.47735512  0.63366723    -0.05400
C810        C  0.29064380  0.49085351  0.65080698     0.00600
C811        C  0.31782042  0.49698138  0.63650126    -0.08000
C812        C  0.32042636  0.49009267  0.60532530    -0.05400
C813        C  0.29888248  0.47298460  0.58797261     0.00500
C814        C  0.27057356  0.46875349  0.60306816    -0.07900
C815        C  0.24187824  0.45469700  0.59052354     0.62500
H816        H  0.24660013  0.47333781  0.64466175     0.13100
H817        H  0.34027573  0.49820863  0.59494112     0.13200
C818        C  0.34332350  0.01059456  0.65304321     0.62700
F819        F  0.21780259  0.47440476  0.59477434    -0.22500
F820        F  0.23648658  0.42844799  0.60613059    -0.19800
F821        F  0.24242058  0.44794833  0.56058880    -0.19500
F822        F  0.35041127  0.49170531  0.67992384    -0.19500
F823        F  0.33694321  0.03986579  0.66194489    -0.19900
F824        F  0.36898582  0.01079501  0.63589746    -0.22500
C825        C  0.30896448  0.37925743  0.52016494    -0.05400
C826        C  0.29345469  0.36357262  0.54216422     0.00600
C827        C  0.28846828  0.37779962  0.57024200    -0.08000
C828        C  0.29550280  0.40842147  0.57356789    -0.05400
C829        C  0.30611263  0.42648962  0.54969735     0.00500
C830        C  0.31644117  0.41001581  0.52331989    -0.07900
C831        C  0.33632490  0.42258942  0.49860646     0.62500
H832        H  0.31487732  0.36700530  0.49986966     0.13100
H833        H  0.29246887  0.41794161  0.59557500     0.13200
C834        C  0.27629089  0.36077486  0.59701989     0.62700
F835        F  0.33711149  0.40366889  0.97296426    -0.22500
F836        F  0.36557042  0.42527212  0.50959275    -0.19800
F837        F  0.32522517  0.45008005  0.98705847    -0.19500
F838        F  0.29192024  0.33368907  0.60089400    -0.19500
F839        F  0.24599115  0.35531083  0.59194664    -0.19900
F840        F  0.27926194  0.37685321  0.62387536    -0.22500
C841        C  0.39632383  0.46946205  0.55610869    -0.05400
C842        C  0.40094484  0.49149123  0.53397288     0.00600
C843        C  0.37540542  0.00259025  0.51641784    -0.08000
C844        C  0.34663288  0.49290879  0.52472672    -0.05400
C845        C  0.34097198  0.47098717  0.54731723     0.00500
C846        C  0.36751231  0.45864516  0.56322597    -0.07900
C847        C  0.36769780  0.43210319  0.58548725     0.62500
H848        H  0.41611582  0.45983126  0.56755875     0.13100
H849        H  0.32871869  0.99967605  0.50842109     0.13200
C850        C  0.37808235  0.02438856  0.49003021     0.62700
F851        F  0.39417463  0.43065770  0.60291247    -0.22500
F852        F  0.36563428  0.40531681  0.56958701    -0.19800
F853        F  0.34484355  0.43395990  0.60577286    -0.19500
F854        F  0.39608132  0.01654100  0.96973575    -0.19500
F855        F  0.38892556  0.05160760  0.50057819    -0.19900
F856        F  0.35069522  0.03039240  0.47518395    -0.22500
C857        C  0.25282584  0.14255377  0.76162867    -0.05400
C858        C  0.23746355  0.12319036  0.74228286     0.00600
C859        C  0.21756972  0.13470427  0.71982583    -0.08000
C860        C  0.21461968  0.16610727  0.71683552    -0.05400
C861        C  0.23009827  0.18715183  0.73612917     0.00500
C862        C  0.24967816  0.17414439  0.75992051    -0.07900
C863        C  0.26753329  0.19091180  0.78446412     0.62500
H864        H  0.26767483  0.13196935  0.77854486     0.13100
H865        H  0.19939244  0.17469825  0.69918743     0.13200
C866        C  0.19975263  0.11382071  0.69909319     0.62700
F867        F  0.24837013  0.20722756  0.80188776    -0.22500
F868        F  0.28834701  0.20908967  0.77219024    -0.19800
F869        F  0.28359806  0.17198584  0.80427234    -0.19500
F870        F  0.18152450  0.09606761  0.71623638    -0.19500
F871        F  0.21933933  0.09546267  0.68319774    -0.19900
F872        F  0.18154914  0.12957605  0.67833953    -0.22500
C873        C  0.16886133  0.20810400  0.74278312    -0.05400
C874        C  0.18888321  0.23007931  0.73157569     0.00600
C875        C  0.17523749  0.25931269  0.72460200    -0.08000
C876        C  0.14403802  0.26415065  0.72903273    -0.05400
C877        C  0.12517753  0.24162394  0.73922581     0.00500
C878        C  0.13778319  0.21314029  0.74638359    -0.07900
C879        C  0.11873405  0.18847297  0.75955154     0.62500
H880        H  0.17757787  0.18702426  0.75141316     0.13100
H881        H  0.13404634  0.28621995  0.72429035     0.13200
C882        C  0.19095393  0.28693153  0.71238897     0.62700
F883        F  0.13579919  0.16324726  0.76799148    -0.22500
F884        F  0.09731470  0.17946964  0.73819371    -0.19800
F885        F  0.10447777  0.19919086  0.78503693    -0.19500
F886        F  0.17578572  0.29668935  0.68625772    -0.19500
F887        F  0.22057818  0.28240874  0.70512861    -0.19900
F888        F  0.18976345  0.30985703  0.73368901    -0.22500
C889        C  0.20708236  0.23032650  0.67019449    -0.05400
C890        C  0.23082565  0.22239874  0.69139262     0.00600
C891        C  0.25870992  0.21265318  0.67719223    -0.08000
C892        C  0.26337419  0.22069514  0.64668004    -0.05400
C893        C  0.24060108  0.23313621  0.62791199     0.00500
C894        C  0.21144239  0.23652409  0.63941593    -0.07900
C895        C  0.18449059  0.24504447  0.61889771     0.62500
H896        H  0.18413516  0.23102809  0.67705939     0.13100
H897        H  0.28481503  0.21596039  0.63639380     0.13200
C898        C  0.28265930  0.19090663  0.69095985     0.62700
F899        F  0.15738587  0.24312528  0.63349035    -0.22500
F900        F  0.18345986  0.22566698  0.59430071    -0.19800
F901        F  0.18694748  0.27436773  0.60895212    -0.19500
F902        F  0.27119619  0.16235183  0.69262395    -0.19500
F903        F  0.29270004  0.19977499  0.71903511    -0.19900
F904        F  0.30806082  0.18846901  0.67351161    -0.22500
C905        C  0.03831048  0.28187696  0.52157647    -0.05400
C906        C  0.03099970  0.28500456  0.98911907     0.00600
C907        C  0.00316185  0.26967260  0.98019104    -0.08000
C908        C  0.48546719  0.25662283  0.50363086    -0.05400
C909        C  0.49655781  0.25049423  0.53327556     0.00500
C910        C  0.02710872  0.25843527  0.53932244    -0.07900
C911        C  0.04972083  0.24209959  0.56066117     0.62500
H912        H  0.05713403  0.29442368  0.53080445     0.13100
H913        H  0.46331501  0.24853420  0.49730237     0.13200
C914        C  0.48771312  0.26471598  0.94904471     0.62700
F915        F  0.05106649  0.21183058  0.55338951    -0.22500
F916        F  0.04320925  0.24543047  0.59053088    -0.19800
F917        F  0.07842568  0.25318103  0.55810581    -0.19500
F918        F  0.50043934  0.27723265  0.92456519    -0.19500
F919        F  0.45835830  0.27596220  0.94953733    -0.19900
F920        F  0.48646648  0.23407228  0.94341294    -0.22500
C921        C  0.09787755  0.27312071  0.99375515    -0.05400
C922        C  0.08822919  0.29942238  0.97734074     0.00600
C923        C  0.11261698  0.31776935  0.96647594    -0.08000
C924        C  0.14270036  0.31127562  0.97664550    -0.05400
C925        C  0.15055288  0.28585758  0.99373744     0.00500
C926        C  0.12809090  0.26578996  0.00137764    -0.07900
C927        C  0.13493459  0.23524935  0.51938723     0.62500
H928        H  0.08210039  0.25626661  0.99909733     0.13100
H929        H  0.16115599  0.32491500  0.96954876     0.13200
C930        C  0.10952081  0.34176079  0.94155679     0.62700
F931        F  0.11002896  0.21740744  0.52262953    -0.22500
F932        F  0.14698953  0.24149191  0.54786629    -0.19800
F933        F  0.15660720  0.21969044  0.00052468    -0.19500
F934        F  0.13569611  0.35788291  0.93873016    -0.19500
F935        F  0.08723737  0.36289689  0.94686409    -0.19900
F936        F  0.10416813  0.32780794  0.91395808    -0.22500
C937        C  0.05456178  0.27224798  0.88837242    -0.05400
C938        C  0.04368089  0.29651271  0.87147759     0.00600
C939        C  0.03848316  0.32451019  0.88517055    -0.08000
C940        C  0.04261150  0.32674670  0.91667653    -0.05400
C941        C  0.05043783  0.30161911  0.93553174     0.00500
C942        C  0.05800315  0.27344811  0.92006035    -0.07900
C943        C  0.06880447  0.24364112  0.93450595     0.62500
H944        H  0.05959504  0.25167227  0.87602760     0.13100
H945        H  0.03949316  0.34876556  0.92615566     0.13200
C946        C  0.02827797  0.35172490  0.86643026     0.62700
F947        F  0.06425718  0.21932659  0.91519964    -0.22500
F948        F  0.05342819  0.23686435  0.96005302    -0.19800
F949        F  0.09944475  0.24451023  0.94065186    -0.19500
F950        F  0.00095884  0.34597221  0.85186073    -0.19500
F951        F  0.04950123  0.35757167  0.84498199    -0.19900
F952        F  0.02466415  0.37735975  0.88406049    -0.22500
C953        C  0.06437402  0.35508536  0.00227016    -0.05400
C954        C  0.04384320  0.33965392  0.98239180     0.00600
C955        C  0.01594067  0.35641777  0.97537353    -0.08000
C956        C  0.01502102  0.38792102  0.97966555    -0.05400
C957        C  0.03742835  0.40312082  0.99553492     0.00500
C958        C  0.06172229  0.38636531  0.00870085    -0.07900
C959        C  0.08468761  0.40165376  0.02934257     0.62500
H960        H  0.08314241  0.34281171  0.01268932     0.13100
H961        H  0.49658463  0.40202396  0.47094598     0.13200
C962        C  0.98588210  0.34297000  0.96560215     0.62700
F963        F  0.10773308  0.38202118  0.03872817    -0.22500
F964        F  0.07059992  0.41266648  0.05478046    -0.19800
F965        F  0.09732043  0.42532573  0.01423708    -0.19500
F966        F  0.97714453  0.32370675  0.48905533    -0.19500
F967        F  0.48815944  0.32937135  0.93593345    -0.19900
F968        F  0.46353461  0.36448262  0.96103125    -0.22500
C969        C  0.49202544  0.01234219  0.78334225    -0.05400
C970        C  0.49281719  0.04371401  0.77729587     0.00600
C971        C  0.01271283  0.05271805  0.75440969    -0.08000
C972        C  0.02864636  0.02948963  0.73916405    -0.05400
C973        C  0.02980318  0.49789517  0.74491867     0.00500
C974        C  0.00895131  0.48881974  0.76790979    -0.07900
C975        C  0.49949617  0.45774695  0.77968755     0.62500
H976        H  0.47853357  0.50568674  0.80225040     0.13100
H977        H  0.04380206  0.03612722  0.72195750     0.13200
C978        C  0.01864913  0.08466280  0.74236340     0.62700
F979        F  0.46908010  0.45768914  0.78596880    -0.22500
F980        F  0.01654503  0.44964919  0.80495250    -0.19800
F981        F  0.50280808  0.43463124  0.75942033    -0.19500
F982        F  0.04445400  0.08561705  0.72546615    -0.19500
F983        F  0.02329024  0.10558853  0.76495101    -0.19900
F984        F  0.99553754  0.09393452  0.72297126    -0.22500
C985        C  0.48228115  0.11610418  0.81997460    -0.05400
C986        C  0.47223721  0.09877698  0.79443383     0.00600
C987        C  0.46187411  0.11666934  0.76849934    -0.08000
C988        C  0.97224880  0.14714248  0.76609469    -0.05400
C989        C  0.48663031  0.16131250  0.79002394     0.00500
C990        C  0.48979549  0.14677184  0.81826217    -0.07900
C991        C  0.50105696  0.16341609  0.84644593     0.62500
H992        H  0.48358264  0.10629091  0.84211121     0.13100
H993        H  0.96706176  0.16024720  0.74588528     0.13200
C994        C  0.93754042  0.10885932  0.74494285     0.62700
F995        F  0.50497559  0.14448040  0.87118308    -0.22500
F996        F  0.48031940  0.18569769  0.85398100    -0.19800
F997        F  0.52848323  0.17636574  0.84108760    -0.19500
F998        F  0.94271919  0.08099526  0.73282023    -0.19500
F999        F  0.93604042  0.12856667  0.72063194    -0.19900
F1000       F  0.90954534  0.10992114  0.75772108    -0.22500
C1001       C  0.41472879  0.07142952  0.80657023    -0.05400
C1002       C  0.43629628  0.05531423  0.78894963     0.00600
C1003       C  0.42391048  0.03321614  0.76753682    -0.08000
C1004       C  0.39365022  0.02517989  0.77017015    -0.05400
C1005       C  0.37336378  0.04184795  0.78693773     0.00500
C1006       C  0.38357298  0.06613632  0.80466620    -0.07900
C1007       C  0.36168160  0.08616632  0.82154658     0.62500
H1008       H  0.42266505  0.08846296  0.82231661     0.13100
H1009       H  0.38460993  0.00707865  0.75615709     0.13200
C1010       C  0.43679418  0.01817012  0.73908565     0.62700
F1011       F  0.37619135  0.10861179  0.83786817    -0.22500
F1012       F  0.34613615  0.06891324  0.84152680    -0.19800
F1013       F  0.34148148  0.09977224  0.80113280    -0.19500
F1014       F  0.43954390  0.98750222  0.74384057    -0.19500
F1015       F  0.46348695  0.02854195  0.72907226    -0.20700
F1016       F  0.41652238  0.02265460  0.71489677    -0.22500
C1017       C  0.00843335  0.04740880  0.88028681    -0.05400
C1018       C  0.48535848  0.03555744  0.89585917     0.00600
C1019       C  0.45821722  0.02953571  0.87990105    -0.08000
C1020       C  0.45561970  0.03640026  0.84859556    -0.05400
C1021       C  0.47788916  0.05216379  0.83223022     0.00500
C1022       C  0.00585102  0.05565813  0.84941419    -0.07900
C1023       C  0.03533032  0.06751274  0.83826481     0.62500
H1024       H  0.02977078  0.05038450  0.89254035     0.13100
H1025       H  0.43571706  0.02838561  0.83700477     0.13200
C1026       C  0.43214806  0.01545202  0.89584658     0.62700
F1027       F  0.05780535  0.04582480  0.84297098    -0.22500
F1028       F  0.04318512  0.09289338  0.85474399    -0.19800
F1029       F  0.03462069  0.07498392  0.80850248    -0.19500
F1030       F  0.42157963  0.03526923  0.91749824    -0.19500
F1031       F  0.44172251  0.98888369  0.90970096    -0.19900
F1032       F  0.40834051  0.00899234  0.87604597    -0.22500
C1033       C  0.25340137  0.28189906  0.78815567    -0.05400
C1034       C  0.28452885  0.28345289  0.78251111     0.00600
C1035       C  0.29274349  0.27106600  0.75330872    -0.08000
C1036       C  0.27041893  0.25554597  0.73587648    -0.05400
C1037       C  0.24302249  0.24504824  0.74729680     0.00500
C1038       C  0.23416855  0.26005330  0.77505952    -0.07900
C1039       C  0.20620476  0.25427322  0.79383959     0.62500
H1040       H  0.24478209  0.29560297  0.80622387     0.13100
H1041       H  0.27532716  0.25055803  0.71300165     0.13200
C1042       C  0.32373257  0.27242437  0.73853988     0.62700
F1043       F  0.21238558  0.25947854  0.82437962    -0.22500
F1044       F  0.19688766  0.22497700  0.79230662    -0.19800
F1045       F  0.18284516  0.27365947  0.78522728    -0.19500
F1046       F  0.34366487  0.25244712  0.75260346    -0.19500
F1047       F  0.33525627  0.30089974  0.73874304    -0.19900
F1048       F  0.32260751  0.26397274  0.70827251    -0.22500
C1049       C  0.29168727  0.34748371  0.77052247    -0.05400
C1050       C  0.29029677  0.33653356  0.80063667     0.00600
C1051       C  0.27706288  0.35753960  0.82195788    -0.08000
C1052       C  0.27735763  0.38860142  0.81521365    -0.05400
C1053       C  0.28289530  0.39915947  0.78620034     0.00500
C1054       C  0.28888972  0.37813952  0.76295327    -0.07900
C1055       C  0.29400725  0.38797387  0.73051337     0.62500
H1056       H  0.29668869  0.33193330  0.75267269     0.13100
H1057       H  0.27020651  0.40485941  0.83214269     0.13200
C1058       C  0.25884543  0.35072135  0.84988275     0.62700
F1059       F  0.30457707  0.36445996  0.71275427    -0.22500
F1060       F  0.31513743  0.41047765  0.73035088    -0.19800
F1061       F  0.26722446  0.39856455  0.71731005    -0.19500
F1062       F  0.27503390  0.35854576  0.87588129    -0.19500
F1063       F  0.24975779  0.32147181  0.85183001    -0.19900
F1064       F  0.23248858  0.36805836  0.84897108    -0.22500
C1065       C  0.38830477  0.27394655  0.80012514    -0.05400
C1066       C  0.40237644  0.29825902  0.78692357     0.00600
C1067       C  0.38551351  0.32518639  0.78199633    -0.08000
C1068       C  0.35508022  0.32645958  0.79062409    -0.05400
C1069       C  0.33912946  0.30086290  0.80074982     0.00500
C1070       C  0.35753711  0.27413214  0.80702967    -0.07900
C1071       C  0.34676259  0.24529532  0.82159477     0.62500
H1072       H  0.40202378  0.25396933  0.80478589     0.13100
H1073       H  0.34397898  0.34806076  0.78892435     0.13200
C1074       C  0.39939247  0.35263844  0.76784261     0.62700
F1075       F  0.36648514  0.22109649  0.81750034    -0.22500
F1076       F  0.31982852  0.23681352  0.80884386    -0.19800
F1077       F  0.34435154  0.24934543  0.85247993    -0.19500
F1078       F  0.40664036  0.34617637  0.73821260    -0.19500
F1079       F  0.42515345  0.36050822  0.78415733    -0.19900
F1080       F  0.37982902  0.37737458  0.76728627    -0.22500
C1081       C  0.28298725  0.26809982  0.84786529    -0.05400
C1082       C  0.30059490  0.29357586  0.84071228     0.00600
C1083       C  0.31505190  0.30848185  0.86640619    -0.08000
C1084       C  0.30642485  0.30089486  0.89601381    -0.05400
C1085       C  0.28654751  0.27765556  0.90194776     0.00500
C1086       C  0.27596668  0.25984358  0.87753263    -0.07900
C1087       C  0.25800157  0.23151712  0.88270750     0.62500
H1088       H  0.27479925  0.25348553  0.83029428     0.13100
H1089       H  0.31576315  0.31295557  0.91532979     0.13200
C1090       C  0.34100282  0.33069865  0.86455864     0.62700
F1091       F  0.25489966  0.21417192  0.85695562    -0.22500
F1092       F  0.22934939  0.23930612  0.89197868    -0.19800
F1093       F  0.27262293  0.21361931  0.90434045    -0.19500
F1094       F  0.34778102  0.34400516  0.89232133    -0.19500
F1095       F  0.33445627  0.35392571  0.84478286    -0.19900
F1096       F  0.36689298  0.31561479  0.85594484    -0.22500
C1097       C  0.30279219  0.80299850  0.30607546    -0.02100
C1098       C  0.47194069  0.56429277  0.29824933    -0.02100
C1099       C  0.05355053  0.80609168  0.47029600    -0.02100
C1100       C  0.22421284  0.72058311  0.22615993    -0.02100
C1101       C  0.30659589  0.96278506  0.05257500    -0.02100
C1102       C  0.47669043  0.73126439  0.05502184    -0.02100
C1103       C  0.22114955  0.54396474  0.47879998    -0.02100
C1104       C  0.05277858  0.97881189  0.22567368    -0.02100
Zn1105     Zn  0.03778814  0.54512514  0.03677273     1.49700
Zn1106     Zn  0.03472821  0.50142900  0.47740889     1.49400
Zn1107     Zn  0.99937205  0.98349464  0.03620416     1.49100
Zn1108     Zn  0.47717336  0.54199037  0.99640946     1.49500
O1109       O  0.01244883  0.51837241  0.01157208    -1.83700
O1110       O  0.07914870  0.54701165  0.02007296    -0.74300
O1111       O  0.03960543  0.95485369  0.48044997    -0.74200
O1112       O  0.01440413  0.98778840  0.07944959    -0.73700
O1113       O  0.07645761  0.51845307  0.47827947    -0.74400
O1114       O  0.04257703  0.53082236  0.08001541    -0.74000
O1115       O  0.01556378  0.94295969  0.02153767    -0.74500
O1116       O  0.43865205  0.52333534  0.01188871    -0.73900
O1117       O  0.01511805  0.51369126  0.43679225    -0.74700
O1118       O  0.45383255  0.98388289  0.03754146    -0.74100
O1119       O  0.47549893  0.54217719  0.44973126    -0.74500
O1120       O  0.47938424  0.58657452  0.01079366    -0.74500
O1121       O  0.02081873  0.58750312  0.03880760    -0.74200
C1122       C  0.09069600  0.53538783  0.49683455     0.77500
C1123       C  0.03160592  0.93574173  0.50010528     0.78000
C1124       C  0.03130502  0.00631844  0.09360303     0.77000
C1125       C  0.43246390  0.00082264  0.02700749     0.77400
C1126       C  0.49236479  0.53020807  0.42976289     0.78500
C1127       C  0.49851642  0.60059566  0.02758356     0.77600
Zn1128     Zn  0.23123766  0.53425860  0.28235208     1.49700
Zn1129     Zn  0.25021662  0.97952382  0.23769929     1.49400
Zn1130     Zn  0.28860697  0.53823104  0.23906193     1.49100
Zn1131     Zn  0.29004005  0.49682606  0.29981155     1.49500
O1132       O  0.26539533  0.51231745  0.26522982    -1.83700
O1133       O  0.19283989  0.51760062  0.26571838    -0.74300
O1134       O  0.26821845  0.98048917  0.19630299    -0.74200
O1135       O  0.26705625  0.57829637  0.23440811    -0.73700
O1136       O  0.20487797  0.98116888  0.23089157    -0.74400
O1137       O  0.23036960  0.57688858  0.26785444    -0.74000
O1138       O  0.29511663  0.52092830  0.19629401    -0.74500
O1139       O  0.33171438  0.51452157  0.29918263    -0.73900
O1140       O  0.26185074  0.93985532  0.25657570    -0.74700
O1141       O  0.32927887  0.54538806  0.25929789    -0.74100
O1142       O  0.29067193  0.95054868  0.29720372    -0.74500
O1143       O  0.27320079  0.50872271  0.34074825    -0.74500
O1144       O  0.23107438  0.53411735  0.32888664    -0.74200
C1145       C  0.18474002  0.99684821  0.24392796     0.77500
C1146       C  0.28482545  0.99854422  0.18228435     0.78000
C1147       C  0.24504141  0.59060086  0.24798808     0.77000
C1148       C  0.34335711  0.53417358  0.28234976     0.77400
C1149       C  0.27819262  0.93149112  0.27930453     0.78500
C1150       C  0.24978237  0.52339521  0.34876994     0.77600
Zn1151     Zn  0.29752388  0.77539075  0.99869824     1.49700
Zn1152     Zn  0.23967329  0.78178009  0.04003258     1.49400
Zn1153     Zn  0.23802106  0.74159030  0.47981383     1.49100
Zn1154     Zn  0.27816757  0.71866974  0.03691395     1.49500
O1155       O  0.26305941  0.75432375  0.01390241    -1.83700
O1156       O  0.30033157  0.81726856  0.01563094    -0.74300
O1157       O  0.19657048  0.78814260  0.02294740    -0.74200
O1158       O  0.25478977  0.75710476  0.44095119    -0.73700
O1159       O  0.26003372  0.82259533  0.04386650    -0.74400
O1160       O  0.29710449  0.77909325  0.45486395    -0.74000
O1161       O  0.19605114  0.75944030  0.48261366    -0.74500
O1162       O  0.26157579  0.68101317  0.01757370    -0.73900
O1163       O  0.23698779  0.76389980  0.08234453    -0.74700
O1164       O  0.23486011  0.69597754  0.47678151    -0.74100
O1165       O  0.26378129  0.72104171  0.08022524    -0.74500
O1166       O  0.32437464  0.71450828  0.03876896    -0.74500
O1167       O  0.33539653  0.75390224  0.01073097    -0.74200
C1168       C  0.28405370  0.83309474  0.03312297     0.77500
C1169       C  0.18308082  0.77717287  0.50112980     0.78000
C1170       C  0.27846103  0.77097074  0.43419246     0.77000
C1171       C  0.24521670  0.67474613  0.49371974     0.77400
C1172       C  0.24754946  0.73987661  0.09482382     0.78500
C1173       C  0.34363914  0.73130560  0.02676768     0.77600
Zn1174     Zn  0.49244109  0.75992744  0.29752671     1.49700
Zn1175     Zn  0.05138907  0.79208660  0.27348785     1.49400
Zn1176     Zn  0.02604963  0.73524831  0.23875853     1.49100
Zn1177     Zn  0.48717003  0.79986844  0.23838717     1.49500
O1178       O  0.01447808  0.77135562  0.26162525    -1.83700
O1179       O  0.01416046  0.77491790  0.33441698    -0.74300
O1180       O  0.08874576  0.77156479  0.25861941    -0.74200
O1181       O  0.01104090  0.69788306  0.25868974    -0.73700
O1182       O  0.05524001  0.79726845  0.31838412    -0.74400
O1183       O  0.48899598  0.71494586  0.30058992    -0.74000
O1184       O  0.07179249  0.73148689  0.23383716    -0.74500
O1185       O  0.48082029  0.78134111  0.19727228    -0.73900
O1186       O  0.05140583  0.83307419  0.25671872    -0.74700
O1187       O  0.00625535  0.73691605  0.19737857    -0.74100
O1188       O  0.00688905  0.83963096  0.23307060    -0.74500
O1189       O  0.44530495  0.80535673  0.25662729    -0.74500
O1190       O  0.45012084  0.77644175  0.29727306    -0.74200
C1191       C  0.03817992  0.78943795  0.33944077     0.77500
C1192       C  0.09353460  0.74784987  0.24311795     0.78000
C1193       C  0.49709982  0.69354688  0.28324378     0.77000
C1194       C  0.48943976  0.75683962  0.18475759     0.77400
C1195       C  0.03261167  0.84933724  0.24162674     0.78500
C1196       C  0.43412655  0.79370458  0.28005051     0.77600
C1197       C  0.10778739  0.96914320  0.21468517    -0.05400
C1198       C  0.08724353  0.98625189  0.23277114     0.00600
C1199       C  0.10090706  0.00815578  0.25335076    -0.08000
C1200       C  0.13257820  0.51444815  0.25286919    -0.05400
C1201       C  0.15182952  0.99319949  0.23663954     0.00500
C1202       C  0.13938052  0.97148844  0.21668481    -0.07900
C1203       C  0.15876452  0.95121988  0.19689093     0.62500
H1204       H  0.09854624  0.95339865  0.19834371     0.13100
H1205       H  0.14215415  0.53260642  0.26628572     0.13200
C1206       C  0.08785997  0.52968745  0.27922450     0.62700
F1207       F  0.14159154  0.93305861  0.17784701    -0.22500
F1208       F  0.17694078  0.93250542  0.21491592    -0.19800
F1209       F  0.17644364  0.96866973  0.17884673    -0.19500
F1210       F  0.06106256  0.01924296  0.28995999    -0.19500
F1211       F  0.08555507  0.55922849  0.26949396    -0.19900
F1212       F  0.10708145  0.52891823  0.30461002    -0.22500
C1213       C  0.05380074  0.89679774  0.25989454    -0.05400
C1214       C  0.04079323  0.88071172  0.23581475     0.00600
C1215       C  0.03899124  0.89384865  0.20693543    -0.08000
C1216       C  0.04480082  0.92471094  0.20453400    -0.05400
C1217       C  0.05188523  0.94338348  0.23002746     0.00500
C1218       C  0.06154431  0.92728036  0.25728651    -0.07900
C1219       C  0.08107160  0.93983549  0.28327675     0.62500
H1220       H  0.05795936  0.88491496  0.28103789     0.13100
H1221       H  0.04477520  0.93365646  0.18200337     0.13200
C1222       C  0.53258384  0.87643185  0.17878617     0.62700
F1223       F  0.08317836  0.92058457  0.30792709    -0.22500
F1224       F  0.06944539  0.96642589  0.29376114    -0.19800
F1225       F  0.11009663  0.94389244  0.27390759    -0.19500
F1226       F  0.50358365  0.86568365  0.17871947    -0.19500
F1227       F  0.05357837  0.85093505  0.17816503    -0.19900
F1228       F  0.53576882  0.89268998  0.15238319    -0.22500
C1229       C  0.01442766  0.98828061  0.14282668    -0.05400
C1230       C  0.03697198  0.00204222  0.12685965     0.00600
C1231       C  0.06312948  0.01129627  0.14303173    -0.08000
C1232       C  0.06587838  0.00522176  0.17438669    -0.05400
C1233       C  0.04471587  0.98820505  0.19081407     0.00500
C1234       C  0.01686414  0.98211290  0.17403911    -0.07900
C1235       C  0.48865834  0.97051793  0.18466707     0.62500
H1236       H  0.49387728  0.98592576  0.13022683     0.13100
H1237       H  0.08495082  0.01488962  0.18615014     0.13200
C1238       C  0.08858774  0.02698272  0.12742790     0.62700
F1239       F  0.46443503  0.99001086  0.17887827    -0.22500
F1240       F  0.98919731  0.96357289  0.21569031    -0.19800
F1241       F  0.48349457  0.94375148  0.16932088    -0.19500
F1242       F  0.07964219  0.55732648  0.11754292    -0.19500
F1243       F  0.09788572  0.00990118  0.10297276    -0.19900
F1244       F  0.11346094  0.03089727  0.14662650    -0.22500
C1245       C  0.22699080  0.62689877  0.51254777    -0.05400
C1246       C  0.23660474  0.64304319  0.48780121     0.00600
C1247       C  0.23697782  0.62885794  0.45920823    -0.08000
C1248       C  0.23060575  0.59787497  0.45729588    -0.05400
C1249       C  0.22457917  0.57966161  0.48302779     0.00500
C1250       C  0.21886014  0.59641211  0.51066070    -0.07900
C1251       C  0.20275642  0.58459804  0.53816816     0.62500
H1252       H  0.22481142  0.63925477  0.53360526     0.13100
H1253       H  0.22951423  0.58839981  0.43487122     0.13200
C1254       C  0.24458358  0.64611094  0.43086157     0.62700
F1255       F  0.20372730  0.60438970  0.56253644    -0.22500
F1256       F  0.21596635  0.55836536  0.54833708    -0.19800
F1257       F  0.17264425  0.58058084  0.53098605    -0.19500
F1258       F  0.27450693  0.65957760  0.93699918    -0.19500
F1259       F  0.22248686  0.66786565  0.42478855    -0.19900
F1260       F  0.24641337  0.62753161  0.40565664    -0.22500
C1261       C  0.21448938  0.52113188  0.39121597    -0.05400
C1262       C  0.24349387  0.52718735  0.38177494     0.00600
C1263       C  0.26561949  0.53500528  0.40403222    -0.08000
C1264       C  0.25706338  0.53878678  0.43440081    -0.05400
C1265       C  0.22734243  0.53411482  0.44439160     0.00500
C1266       C  0.20701276  0.52049906  0.42212958    -0.07900
C1267       C  0.17975121  0.50091428  0.42774704     0.62500
H1268       H  0.19815418  0.51359704  0.37417921     0.13100
H1269       H  0.27374146  0.54636797  0.45079665     0.13200
C1270       C  0.29786515  0.54090697  0.39565883     0.62700
F1271       F  0.18066481  0.47573761  0.40905714    -0.22500
F1272       F  0.15341198  0.51685556  0.42067123    -0.19800
F1273       F  0.17883753  0.48961426  0.45655876    -0.19500
F1274       F  0.29785115  0.56177775  0.37251431    -0.19500
F1275       F  0.31168112  0.51436575  0.38635809    -0.19900
F1276       F  0.31479329  0.55222057  0.41982295    -0.22500
C1277       C  0.16666252  0.55750978  0.46863912    -0.05400
C1278       C  0.18709858  0.53909541  0.48650196     0.00600
C1279       C  0.17453928  0.52055238  0.00984806    -0.08000
C1280       C  0.14283623  0.52072335  0.01164341    -0.05400
C1281       C  0.12316318  0.53901495  0.49326532     0.00500
C1282       C  0.13533746  0.55820822  0.47198110    -0.07900
C1283       C  0.11531883  0.57885713  0.45238179     0.62500
H1284       H  0.17551276  0.57128935  0.45094716     0.13100
H1285       H  0.13187179  0.50560186  0.02688632     0.13200
C1286       C  0.18979431  0.49669006  0.03061064     0.62700
F1287       F  0.13195426  0.59980748  0.43720892    -0.22500
F1288       F  0.09509432  0.59450347  0.47017500    -0.19800
F1289       F  0.09952157  0.56188146  0.43118611    -0.19500
F1290       F  0.21672938  0.50509319  0.04348782    -0.19500
F1291       F  0.19341820  0.47020184  0.01465280    -0.19900
F1292       F  0.17211692  0.49021384  0.05506666    -0.22500
C1293       C  0.99532487  0.77257280  0.13224012    -0.05400
C1294       C  0.48232232  0.75252839  0.15251050     0.00600
C1295       C  0.46297440  0.73040276  0.14093504    -0.08000
C1296       C  0.46054010  0.72657280  0.10922890    -0.05400
C1297       C  0.47734879  0.74377780  0.08859752     0.00500
C1298       C  0.99127689  0.77101167  0.10068069    -0.07900
C1299       C  0.00180187  0.80054336  0.08631028     0.62500
H1300       H  0.00854064  0.79060961  0.14230460     0.13100
H1301       H  0.44734271  0.70805851  0.10053022     0.13200
C1302       C  0.44613140  0.71028638  0.16210618     0.62700
F1303       F  0.98833393  0.82477014  0.10101473    -0.22500
F1304       F  0.99473666  0.80453410  0.05637595    -0.19800
F1305       F  0.03264178  0.80335266  0.09042385    -0.19500
F1306       F  0.42956497  0.72784520  0.18183649    -0.19500
F1307       F  0.46645114  0.69244642  0.17872121    -0.19900
F1308       F  0.42647785  0.69162456  0.14639748    -0.22500
C1309       C  0.42550684  0.70412589  0.04067726    -0.05400
C1310       C  0.44091461  0.73203559  0.04592332     0.00600
C1311       C  0.42108076  0.75863778  0.04616145    -0.08000
C1312       C  0.38987289  0.75540773  0.04205337    -0.05400
C1313       C  0.37638385  0.72850996  0.03438204     0.00500
C1314       C  0.39432845  0.70218456  0.03321564    -0.07900
C1315       C  0.38080207  0.67240949  0.02345376     0.62500
H1316       H  0.43717337  0.68283802  0.04324681     0.13100
H1317       H  0.37478400  0.77469050  0.04448831     0.13200
C1318       C  0.43014499  0.79122594  0.05059215     0.62700
F1319       F  0.40238427  0.64947741  0.02215504    -0.22500
F1320       F  0.36742243  0.67548783  0.99488109    -0.19800
F1321       F  0.35931051  0.66401215  0.04366673    -0.19500
F1322       F  0.45031985  0.79860009  0.02926787    -0.19500
F1323       F  0.44084244  0.79570998  0.07965132    -0.19900
F1324       F  0.40650493  0.81189239  0.04651657    -0.22500
C1325       C  0.48786499  0.68602865  0.02007373    -0.05400
C1326       C  0.48924581  0.69700306  0.05073415     0.00600
C1327       C  0.49815140  0.67412741  0.07304239    -0.08000
C1328       C  0.49819192  0.64325906  0.06433462    -0.05400
C1329       C  0.49447778  0.63350748  0.03434049     0.00500
C1330       C  0.49081927  0.65542766  0.01160541    -0.07900
C1331       C  0.49303077  0.64662621  0.47808716     0.62500
H1332       H  0.48150062  0.70108753  0.00208630     0.13100
H1333       H  0.50274130  0.62607231  0.08140052     0.13200
C1334       C  0.51017373  0.67782993  0.10554856     0.62700
F1335       F  0.49592875  0.67128193  0.45935635    -0.22500
F1336       F  0.46647610  0.63248918  0.47007464    -0.19800
F1337       F  0.01620526  0.62722946  0.47181210    -0.19500
F1338       F  0.48921050  0.66726000  0.12527328    -0.19500
F1339       F  0.51771190  0.70640918  0.11363504    -0.19900
F1340       F  0.53641954  0.66064349  0.10958360    -0.22500
C1341       C  0.28337184  0.51199117  0.03723589    -0.05400
C1342       C  0.28287006  0.98110979  0.03090975     0.00600
C1343       C  0.26212963  0.97131635  0.00655643    -0.08000
C1344       C  0.24578425  0.49315754  0.99112578    -0.05400
C1345       C  0.24531844  0.52423922  0.49786319     0.00500
C1346       C  0.26941452  0.53384893  0.01812620    -0.07900
C1347       C  0.28339321  0.56470873  0.52063069     0.62500
H1348       H  0.29830259  0.52033663  0.05502646     0.13100
H1349       H  0.23099137  0.48604182  0.97291582     0.13200
C1350       C  0.25523850  0.93892866  0.99517646     0.62700
F1351       F  0.31382999  0.56172204  0.52831845    -0.22500
F1352       F  0.27050853  0.58202260  0.54304171    -0.19800
F1353       F  0.28245192  0.57973602  0.49341614    -0.19500
F1354       F  0.22692942  0.93737167  0.98123079    -0.19500
F1355       F  0.25465680  0.91770843  0.01762178    -0.19900
F1356       F  0.27511548  0.92998036  0.97336292    -0.22500
C1357       C  0.26818741  0.97770523  0.13278788    -0.05400
C1358       C  0.29092116  0.99190928  0.14959764     0.00600
C1359       C  0.31765725  0.99883485  0.13480159    -0.08000
C1360       C  0.32013970  0.99151449  0.10367355    -0.05400
C1361       C  0.29878382  0.97379800  0.08669822     0.00500
C1362       C  0.27078709  0.96916435  0.10214963    -0.07900
C1363       C  0.24214098  0.95487880  0.08985741     0.62500
H1364       H  0.24730177  0.97321266  0.14402686     0.13100
H1365       H  0.33964122  0.99997620  0.09291357     0.13200
C1366       C  0.34452778  0.51080617  0.15321590     0.62700
F1367       F  0.21793799  0.97435704  0.09437931    -0.22500
F1368       F  0.23717375  0.92849948  0.10541685    -0.19800
F1369       F  0.24248462  0.94832700  0.05988508    -0.19500
F1370       F  0.35126366  0.99563487  0.17763843    -0.19500
F1371       F  0.33786962  0.54018217  0.16158275    -0.19900
F1372       F  0.37018757  0.51091186  0.13607532    -0.22500
C1373       C  0.30814338  0.88055007  0.01792281    -0.05400
C1374       C  0.29318197  0.86459322  0.04013861     0.00600
C1375       C  0.28891460  0.87848594  0.06851797    -0.08000
C1376       C  0.29577769  0.90913196  0.07198687    -0.05400
C1377       C  0.30575246  0.92743862  0.04803943     0.00500
C1378       C  0.31569377  0.91127687  0.02130893    -0.07900
C1379       C  0.33525426  0.92420512  0.99650052     0.62500
H1380       H  0.31359339  0.86854833  0.99734245     0.13100
H1381       H  0.29322096  0.91847891  0.09415154     0.13200
C1382       C  0.27773915  0.86103627  0.09546855     0.62700
F1383       F  0.34143615  0.90123924  0.47556957    -0.22500
F1384       F  0.36448646  0.92740199  0.00736126    -0.19800
F1385       F  0.32870362  0.94801750  0.48753115    -0.19500
F1386       F  0.29356910  0.83395623  0.09843508    -0.19500
F1387       F  0.24733682  0.85552926  0.09133436    -0.19900
F1388       F  0.28159141  0.87675159  0.12243725    -0.22500
C1389       C  0.39576144  0.97083351  0.05553496    -0.05400
C1390       C  0.40043050  0.99275649  0.03333568     0.00600
C1391       C  0.37529679  0.50329268  0.01712385    -0.08000
C1392       C  0.34625411  0.99366217  0.02336900    -0.05400
C1393       C  0.34057541  0.97175463  0.04593681     0.00500
C1394       C  0.36704598  0.95945102  0.06199594    -0.07900
C1395       C  0.36712680  0.93261108  0.08391989     0.62500
H1396       H  0.41550645  0.96164258  0.06740356     0.13100
H1397       H  0.32855763  0.50066534  0.00930069     0.13200
C1398       C  0.37780494  0.52625236  0.99172658     0.62700
F1399       F  0.39435972  0.92936406  0.09985728    -0.22500
F1400       F  0.36291926  0.90618697  0.06787771    -0.19800
F1401       F  0.34546448  0.93550723  0.10543527    -0.19500
F1402       F  0.39638810  0.51562003  0.47071272    -0.19500
F1403       F  0.38915386  0.55284658  0.00334752    -0.19900
F1404       F  0.35025671  0.53322633  0.97762132    -0.22500
C1405       C  0.25418038  0.64244363  0.26165709    -0.05400
C1406       C  0.23858167  0.62268017  0.24299303     0.00600
C1407       C  0.21841638  0.63364635  0.22052101    -0.08000
C1408       C  0.21571395  0.66495064  0.21654840    -0.05400
C1409       C  0.23107420  0.68645535  0.23542681     0.00500
C1410       C  0.25104484  0.67398122  0.25922837    -0.07900
C1411       C  0.26966738  0.69117969  0.28287561     0.62500
H1412       H  0.26923988  0.63219402  0.27859739     0.13100
H1413       H  0.20045529  0.67309732  0.19872022     0.13200
C1414       C  0.19965065  0.61228447  0.20119327     0.62700
F1415       F  0.25121962  0.70778679  0.30082038    -0.22500
F1416       F  0.28995433  0.70908790  0.26944901    -0.19800
F1417       F  0.28650350  0.67262868  0.30242439    -0.19500
F1418       F  0.18129991  0.59600262  0.21963370    -0.19500
F1419       F  0.21835327  0.59254636  0.18584595    -0.19900
F1420       F  0.18144803  0.62749483  0.18003475    -0.22500
C1421       C  0.16924439  0.70658111  0.24086055    -0.05400
C1422       C  0.18923921  0.72876687  0.23003321     0.00600
C1423       C  0.17533644  0.75771492  0.22239743    -0.08000
C1424       C  0.14412609  0.76234300  0.22666183    -0.05400
C1425       C  0.12530410  0.73960401  0.23638742     0.00500
C1426       C  0.13787335  0.71090168  0.24267890    -0.07900
C1427       C  0.11834906  0.68491264  0.25212198     0.62500
H1428       H  0.17798139  0.68570482  0.24998154     0.13100
H1429       H  0.13405933  0.78440543  0.22202517     0.13200
C1430       C  0.19073037  0.78531399  0.20980496     0.62700
F1431       F  0.13524156  0.65917751  0.25921265    -0.22500
F1432       F  0.09858339  0.67774087  0.22848476    -0.19800
F1433       F  0.10215544  0.69294975  0.27733512    -0.19500
F1434       F  0.17571360  0.79421759  0.18328344    -0.19500
F1435       F  0.22050422  0.78116909  0.20300702    -0.19900
F1436       F  0.18884071  0.80865379  0.23059030    -0.22500
C1437       C  0.20734991  0.72806919  0.16894666    -0.05400
C1438       C  0.23137333  0.72132455  0.19026692     0.00600
C1439       C  0.25958505  0.71267294  0.17612035    -0.08000
C1440       C  0.26411103  0.72158027  0.14580556    -0.05400
C1441       C  0.24093179  0.73339748  0.12706510     0.00500
C1442       C  0.21158417  0.73497064  0.13831169    -0.07900
C1443       C  0.18446009  0.74276900  0.11777304     0.62500
H1444       H  0.18435586  0.72751347  0.17567032     0.13100
H1445       H  0.28586517  0.71820178  0.13570402     0.13200
C1446       C  0.28431487  0.69174343  0.18987216     0.62700
F1447       F  0.15738137  0.73809060  0.13169754    -0.22500
F1448       F  0.18501640  0.72486702  0.09207789    -0.19800
F1449       F  0.18520066  0.77278310  0.10960346    -0.19500
F1450       F  0.27313741  0.66351999  0.19478866    -0.19500
F1451       F  0.29640952  0.70283485  0.21631773    -0.19900
F1452       F  0.30826767  0.68751333  0.17074691    -0.22500
C1453       C  0.03873412  0.78094938  0.01950157    -0.05400
C1454       C  0.03137289  0.78509368  0.48837526     0.00600
C1455       C  0.00372255  0.76974756  0.47892654    -0.08000
C1456       C  0.48534083  0.75621060  0.00328332    -0.05400
C1457       C  0.49651522  0.75000140  0.03293143     0.00500
C1458       C  0.02724864  0.75798913  0.03762862    -0.07900
C1459       C  0.04972799  0.74196361  0.05936365     0.62500
H1460       H  0.05751458  0.79357750  0.02870279     0.13100
H1461       H  0.46303528  0.74843126  0.99704765     0.13200
C1462       C  0.48794145  0.76409215  0.44835104     0.62700
F1463       F  0.05004362  0.71137119  0.05366131    -0.22500
F1464       F  0.04400546  0.74717335  0.08917724    -0.19800
F1465       F  0.07871756  0.75183991  0.05564217    -0.19500
F1466       F  0.50077827  0.77607002  0.42365582    -0.19500
F1467       F  0.45858977  0.77538120  0.44849843    -0.19900
F1468       F  0.48668328  0.73333348  0.44334093    -0.22500
C1469       C  0.09805741  0.77283227  0.49441651    -0.05400
C1470       C  0.08888945  0.79929964  0.47797671     0.00600
C1471       C  0.11359977  0.81771214  0.46797454    -0.08000
C1472       C  0.14346778  0.81080362  0.47851158    -0.05400
C1473       C  0.15087383  0.78509808  0.49531769     0.00500
C1474       C  0.12810778  0.76521332  0.50255061    -0.07900
C1475       C  0.13612732  0.73499500  0.01691932     0.62500
H1476       H  0.08203318  0.75607605  0.49936883     0.13100
H1477       H  0.16217536  0.82432760  0.47183943     0.13200
C1478       C  0.11121761  0.84215349  0.44345826     0.62700
F1479       F  0.11134907  0.71714141  0.02081997    -0.22500
F1480       F  0.14911379  0.74095040  0.04506652    -0.19800
F1481       F  0.15608317  0.71876340  0.50192937    -0.19500
F1482       F  0.13747381  0.85835825  0.44175491    -0.19500
F1483       F  0.08878085  0.86319769  0.44845842    -0.19900
F1484       F  0.10671799  0.82868790  0.41548131    -0.22500
C1485       C  0.05676046  0.77139311  0.38821186    -0.05400
C1486       C  0.04674807  0.79573696  0.37090660     0.00600
C1487       C  0.04210786  0.82398055  0.38433084    -0.08000
C1488       C  0.04547619  0.82633030  0.41591245    -0.05400
C1489       C  0.05226463  0.80121220  0.43510145     0.00500
C1490       C  0.05972279  0.77281681  0.41996796    -0.07900
C1491       C  0.06979376  0.74296635  0.43483242     0.62500
H1492       H  0.06144035  0.75058917  0.37612341     0.13100
H1493       H  0.04255886  0.84844705  0.42520421     0.13200
C1494       C  0.03314458  0.85135776  0.36526465     0.62700
F1495       F  0.06536602  0.71858454  0.41558306    -0.22500
F1496       F  0.05376989  0.73654199  0.46005080    -0.19800
F1497       F  0.10031284  0.74347646  0.44169496    -0.19500
F1498       F  0.00556093  0.84667085  0.35078757    -0.19500
F1499       F  0.05461871  0.85595805  0.34374412    -0.19900
F1500       F  0.03074044  0.87734614  0.38258562    -0.22500
C1501       C  0.06374389  0.85471735  0.50275236    -0.05400
C1502       C  0.04429245  0.83955748  0.48158469     0.00600
C1503       C  0.01685584  0.85650508  0.47322234    -0.08000
C1504       C  0.01604907  0.88804304  0.47729889    -0.05400
C1505       C  0.03733931  0.90296362  0.49497984     0.00500
C1506       C  0.06053682  0.88586485  0.50970799    -0.07900
C1507       C  0.08174901  0.90063645  0.53256152     0.62500
H1508       H  0.08199437  0.84227771  0.51390596     0.13100
H1509       H  0.49434872  0.90051388  0.97030052     0.13200
C1510       C  0.98700488  0.84322048  0.46252414     0.62700
F1511       F  0.10378359  0.88067459  0.54359376    -0.22500
F1512       F  0.06550066  0.91130464  0.55678933    -0.19800
F1513       F  0.09584800  0.92446816  0.51916230    -0.19500
F1514       F  0.97681587  0.82205767  0.98559679    -0.19500
F1515       F  0.48814825  0.82802190  0.43606037    -0.19900
F1516       F  0.46325149  0.86386609  0.45978415    -0.22500
C1517       C  0.49427517  0.51395808  0.28473631    -0.05400
C1518       C  0.49462223  0.54525619  0.27836293     0.00600
C1519       C  0.01492794  0.55416742  0.25431041    -0.08000
C1520       C  0.03085243  0.53119018  0.23863299    -0.05400
C1521       C  0.03002620  0.99824276  0.24523221     0.00500
C1522       C  0.00925754  0.98958875  0.26847550    -0.07900
C1523       C  0.50010599  0.95892797  0.27878922     0.62500
H1524       H  0.47838334  0.00672046  0.30106295     0.13100
H1525       H  0.04580590  0.53809656  0.22130680     0.13200
C1526       C  0.02122833  0.58636495  0.24304345     0.62700
F1527       F  0.47007129  0.95863288  0.28658894    -0.22500
F1528       F  0.01728387  0.95041788  0.30550163    -0.19800
F1529       F  0.50229479  0.93608297  0.25803378    -0.19500
F1530       F  0.04812698  0.58756458  0.22793830    -0.19500
F1531       F  0.02428943  0.60727191  0.26587674    -0.19900
F1532       F  0.99920460  0.59569311  0.22239025    -0.22500
C1533       C  0.48391812  0.61766638  0.32006032    -0.05400
C1534       C  0.47335191  0.60007949  0.29493035     0.00600
C1535       C  0.46260995  0.61762937  0.26887163    -0.08000
C1536       C  0.97206462  0.64719567  0.26571641    -0.05400
C1537       C  0.48775287  0.66243477  0.28944364     0.00500
C1538       C  0.49189519  0.64812498  0.31767881    -0.07900
C1539       C  0.50518152  0.66473167  0.34501845     0.62500
H1540       H  0.48563642  0.60817078  0.34231613     0.13100
H1541       H  0.96672086  0.66011137  0.24541987     0.13200
C1542       C  0.93928088  0.60743195  0.24399998     0.62700
F1543       F  0.50997129  0.64598233  0.36976437    -0.22500
F1544       F  0.48564532  0.68771228  0.35351886    -0.19800
F1545       F  0.53259738  0.67675970  0.33785287    -0.19500
F1546       F  0.94706043  0.58041833  0.23134707    -0.19500
F1547       F  0.93644333  0.62767927  0.22020856    -0.19900
F1548       F  0.91113603  0.60572378  0.25624543    -0.22500
C1549       C  0.41613194  0.57184072  0.30737216    -0.05400
C1550       C  0.43796413  0.55608660  0.28976587     0.00600
C1551       C  0.42592354  0.53384541  0.26827180    -0.08000
C1552       C  0.39574513  0.52544180  0.27071420    -0.05400
C1553       C  0.37521751  0.54179648  0.28744447     0.00500
C1554       C  0.38506888  0.56605783  0.30538416    -0.07900
C1555       C  0.36278121  0.58565213  0.32221183     0.62500
H1556       H  0.42378403  0.58902524  0.32309839     0.13100
H1557       H  0.38693495  0.50734552  0.25653974     0.13200
C1558       C  0.43890690  0.51913472  0.23971185     0.62700
F1559       F  0.37690331  0.60772084  0.33938592    -0.22500
F1560       F  0.34676103  0.56792882  0.34138462    -0.19800
F1561       F  0.34303601  0.59965938  0.30163090    -0.19500
F1562       F  0.44122024  0.48836095  0.24391901    -0.19500
F1563       F  0.46581918  0.52925402  0.23011991    -0.20700
F1564       F  0.41888115  0.52432138  0.21545491    -0.22500
C1565       C  0.01020843  0.54859801  0.38032283    -0.05400
C1566       C  0.48683376  0.53705868  0.39687622     0.00600
C1567       C  0.46001561  0.53041944  0.38068893    -0.08000
C1568       C  0.45738625  0.53755338  0.34946242    -0.05400
C1569       C  0.47942178  0.55380946  0.33324614     0.00500
C1570       C  0.00774001  0.55672317  0.34938978    -0.07900
C1571       C  0.03702527  0.56920816  0.33839643     0.62500
H1572       H  0.03128793  0.55222170  0.39282986     0.13100
H1573       H  0.43773840  0.52913197  0.33774373     0.13200
C1574       C  0.43441566  0.51515636  0.39630711     0.62700
F1575       F  0.06001487  0.54810803  0.34337159    -0.22500
F1576       F  0.04413279  0.59492654  0.35468065    -0.19800
F1577       F  0.03635803  0.57635477  0.30858390    -0.19500
F1578       F  0.42290258  0.53434167  0.41803246    -0.19500
F1579       F  0.44494268  0.48884787  0.41003534    -0.19900
F1580       F  0.41107485  0.50788325  0.37625935    -0.22500
C1581       C  0.25255492  0.78092786  0.28759182    -0.05400
C1582       C  0.28369988  0.78295219  0.28210469     0.00600
C1583       C  0.29211037  0.77107946  0.25271706    -0.08000
C1584       C  0.26985797  0.75596213  0.23481202    -0.05400
C1585       C  0.24282251  0.74462104  0.24612822     0.00500
C1586       C  0.23365123  0.75902906  0.27405582    -0.07900
C1587       C  0.20566097  0.75222582  0.29239869     0.62500
H1588       H  0.24365416  0.79431857  0.30573645     0.13100
H1589       H  0.27456718  0.75184020  0.21164830     0.13200
C1590       C  0.32333680  0.77211900  0.23841889     0.62700
F1591       F  0.21071157  0.75849306  0.32290986    -0.22500
F1592       F  0.19816845  0.72231201  0.29121433    -0.19800
F1593       F  0.18146730  0.77008686  0.28283158    -0.19500
F1594       F  0.34282355  0.75190530  0.25276209    -0.19500
F1595       F  0.33522942  0.80042870  0.23881642    -0.19900
F1596       F  0.32255319  0.76365868  0.20815185    -0.22500
C1597       C  0.29124355  0.84706595  0.26997363    -0.05400
C1598       C  0.28911302  0.83611725  0.30001056     0.00600
C1599       C  0.27517322  0.85709812  0.32092142    -0.08000
C1600       C  0.27535083  0.88817368  0.31408249    -0.05400
C1601       C  0.28194064  0.89876400  0.28532533     0.00500
C1602       C  0.28888677  0.87774315  0.26237757    -0.07900
C1603       C  0.29559061  0.88763856  0.23032270     0.62500
H1604       H  0.29671417  0.83150742  0.25225539     0.13100
H1605       H  0.26752159  0.90442061  0.33071705     0.13200
C1606       C  0.25647055  0.85024591  0.34850781     0.62700
F1607       F  0.30730787  0.86421784  0.21316963    -0.22500
F1608       F  0.31654310  0.91032513  0.23128012    -0.19800
F1609       F  0.26939399  0.89802572  0.21580099    -0.19500
F1610       F  0.27193275  0.85873672  0.37472625    -0.19500
F1611       F  0.24794736  0.82085883  0.35075845    -0.19900
F1612       F  0.22977755  0.86701733  0.34672758    -0.22500
C1613       C  0.38741825  0.77368533  0.30025904    -0.05400
C1614       C  0.40151360  0.79804002  0.28707422     0.00600
C1615       C  0.38463755  0.82499223  0.28238317    -0.08000
C1616       C  0.35417202  0.82621550  0.29093752    -0.05400
C1617       C  0.33814482  0.80057841  0.30083148     0.00500
C1618       C  0.35657681  0.77386836  0.30714489    -0.07900
C1619       C  0.34566816  0.74504828  0.32164589     0.62500
H1620       H  0.40115253  0.75370981  0.30489370     0.13100
H1621       H  0.34310216  0.84783470  0.28935518     0.13200
C1622       C  0.39856232  0.85253811  0.26848986     0.62700
F1623       F  0.36539659  0.72083916  0.31763309    -0.22500
F1624       F  0.31874710  0.73660139  0.30880111    -0.19800
F1625       F  0.34307288  0.74911998  0.35250928    -0.19500
F1626       F  0.40551261  0.84639109  0.23871629    -0.19500
F1627       F  0.42450851  0.86004503  0.28469430    -0.19900
F1628       F  0.37916171  0.87739058  0.26843628    -0.22500
C1629       C  0.28154203  0.76801929  0.34773378    -0.05400
C1630       C  0.29918590  0.79344914  0.34052448     0.00600
C1631       C  0.31327293  0.80864572  0.36624407    -0.08000
C1632       C  0.30469286  0.80100842  0.39586421    -0.05400
C1633       C  0.28489816  0.77770983  0.40185677     0.00500
C1634       C  0.27398917  0.76011501  0.37737591    -0.07900
C1635       C  0.25489986  0.73249821  0.38240802     0.62500
H1636       H  0.27364584  0.75324444  0.33020746     0.13100
H1637       H  0.31406406  0.81304898  0.41517642     0.13200
C1638       C  0.33899888  0.83109934  0.36443485     0.62700
F1639       F  0.25026962  0.71584083  0.35637728    -0.22500
F1640       F  0.22684293  0.74135408  0.39252710    -0.19800
F1641       F  0.26921712  0.71359524  0.40335308    -0.19500
F1642       F  0.34534988  0.84476568  0.39211403    -0.19500
F1643       F  0.33240391  0.85407409  0.34438558    -0.19900
F1644       F  0.36511087  0.81615471  0.35621930    -0.22500
C1645       C  0.30210712  0.80276135  0.80500596    -0.02100
C1646       C  0.47189184  0.56332176  0.79820641    -0.02100
C1647       C  0.05271527  0.80483475  0.96985470    -0.02100
C1648       C  0.22189844  0.72015834  0.72666265    -0.02100
C1649       C  0.30690019  0.96195526  0.55323994    -0.02100
C1650       C  0.47696449  0.73145494  0.55410795    -0.02100
C1651       C  0.22162473  0.54432209  0.97863042    -0.02100
C1652       C  0.05130217  0.97894325  0.72652253    -0.02100
Zn1653     Zn  0.03696390  0.54491879  0.53666340     1.49700
Zn1654     Zn  0.03540515  0.50109469  0.97784042     1.49400
Zn1655     Zn  0.99961361  0.98436205  0.53698445     1.49100
Zn1656     Zn  0.47702792  0.54230920  0.49662458     1.49500
O1657       O  0.01163303  0.51846281  0.51121449    -1.83700
O1658       O  0.07852717  0.54669730  0.52015017    -0.74300
O1659       O  0.03909370  0.95398371  0.97934379    -0.74200
O1660       O  0.01415682  0.98896600  0.58027991    -0.73700
O1661       O  0.07729395  0.51761006  0.97899384    -0.74400
O1662       O  0.04103675  0.53051353  0.58000194    -0.74000
O1663       O  0.01636469  0.94389121  0.52284132    -0.74500
O1664       O  0.43870139  0.52329585  0.51237375    -0.73900
O1665       O  0.01590355  0.51326312  0.93718726    -0.74700
O1666       O  0.45435532  0.98263914  0.53688390    -0.74100
O1667       O  0.47566070  0.54172576  0.94972053    -0.74500
O1668       O  0.47930460  0.58693211  0.51092168    -0.74500
O1669       O  0.02029655  0.58738669  0.53840933    -0.74200
C1670       C  0.09142543  0.53501907  0.99717194     0.77500
C1671       C  0.03085917  0.93481144  0.99883214     0.78000
C1672       C  0.03082935  0.00757713  0.59458107     0.77000
C1673       C  0.43289409  0.99966055  0.52667959     0.77400
C1674       C  0.49228450  0.52951142  0.92971908     0.78500
C1675       C  0.49835494  0.60089088  0.52787563     0.77600
Zn1676     Zn  0.23009696  0.53368547  0.78180659     1.49700
Zn1677     Zn  0.24876468  0.97948671  0.73848213     1.49400
Zn1678     Zn  0.28786425  0.53851527  0.73916344     1.49100
Zn1679     Zn  0.28946418  0.49700512  0.79960079     1.49500
O1680       O  0.26466190  0.51217356  0.76500559    -1.83700
O1681       O  0.19195811  0.51692298  0.76445931    -0.74300
O1682       O  0.26605342  0.97991395  0.69652495    -0.74200
O1683       O  0.26635796  0.57864626  0.73501647    -0.73700
O1684       O  0.20336091  0.98128407  0.73280626    -0.74400
O1685       O  0.22920606  0.57638806  0.76786162    -0.74000
O1686       O  0.29431566  0.52133553  0.69636718    -0.74500
O1687       O  0.33111706  0.51504967  0.79910245    -0.73900
O1688       O  0.26065544  0.93996227  0.75743171    -0.74700
O1689       O  0.32861282  0.54585449  0.75922168    -0.74100
O1690       O  0.29000426  0.95063460  0.79772285    -0.74500
O1691       O  0.27230411  0.50919408  0.84026588    -0.74500
O1692       O  0.22962628  0.53362362  0.82829891    -0.74200
C1693       C  0.18337387  0.99744928  0.74550573     0.77500
C1694       C  0.28329537  0.99743561  0.68258670     0.78000
C1695       C  0.24411682  0.59056880  0.74854844     0.77000
C1696       C  0.34274416  0.53472404  0.78227045     0.77400
C1697       C  0.27731819  0.93160172  0.77993339     0.78500
C1698       C  0.24865844  0.52353751  0.84820760     0.77600
Zn1699     Zn  0.29738926  0.77446659  0.49994625     1.49700
Zn1700     Zn  0.23971284  0.78032237  0.54176425     1.49400
Zn1701     Zn  0.23813369  0.74197245  0.97877860     1.49100
Zn1702     Zn  0.27822457  0.71722891  0.53759981     1.49500
O1703       O  0.26303856  0.75323138  0.51512475    -1.83700
O1704       O  0.30020572  0.81598147  0.51767658    -0.74300
O1705       O  0.19694591  0.78762569  0.52448836    -0.74200
O1706       O  0.25504642  0.75681668  0.93967897    -0.73700
O1707       O  0.26039452  0.82102298  0.54661765    -0.74400
O1708       O  0.29729857  0.77905611  0.95365859    -0.74000
O1709       O  0.19601821  0.75968531  0.98124772    -0.74500
O1710       O  0.26166116  0.68009523  0.51725231    -0.73900
O1711       O  0.23584396  0.76118853  0.58340263    -0.74700
O1712       O  0.23518745  0.69626973  0.97661761    -0.74100
O1713       O  0.26299960  0.71853935  0.58084538    -0.74500
O1714       O  0.32467105  0.71310970  0.53940553    -0.74500
O1715       O  0.33524110  0.75267807  0.51138310    -0.74200
C1716       C  0.28424191  0.83165495  0.53559590     0.77500
C1717       C  0.18281154  0.77736349  0.99965636     0.78000
C1718       C  0.27880107  0.77061424  0.93299776     0.77000
C1719       C  0.24538327  0.67528907  0.99396996     0.77400
C1720       C  0.24619951  0.73687702  0.59546851     0.78500
C1721       C  0.34375251  0.73001904  0.52719971     0.77600
Zn1722     Zn  0.49181941  0.75926308  0.79724409     1.49700
Zn1723     Zn  0.04958973  0.79172035  0.77340902     1.49400
Zn1724     Zn  0.02462570  0.73453618  0.73847989     1.49100
Zn1725     Zn  0.48598551  0.79867521  0.73760863     1.49500
O1726       O  0.01299473  0.77067775  0.76123725    -1.83700
O1727       O  0.01260364  0.77316259  0.83403446    -0.74300
O1728       O  0.08690673  0.77150717  0.75873058    -0.74200
O1729       O  0.00987186  0.69677356  0.75829001    -0.73700
O1730       O  0.05337016  0.79620246  0.81822813    -0.74400
O1731       O  0.48908349  0.71411652  0.80058024    -0.74000
O1732       O  0.07031226  0.73101631  0.73424408    -0.74500
O1733       O  0.47926240  0.78026972  0.69667083    -0.73900
O1734       O  0.04977895  0.83295639  0.75715570    -0.74700
O1735       O  0.00533704  0.73657211  0.69679787    -0.74100
O1736       O  0.00583617  0.83930682  0.73245679    -0.74500
O1737       O  0.44450505  0.80417830  0.75592490    -0.74500
O1738       O  0.44929262  0.77530988  0.79660814    -0.74200
C1739       C  0.03647475  0.78784411  0.83918416     0.77500
C1740       C  0.09181709  0.74764731  0.74355274     0.78000
C1741       C  0.49717728  0.69276363  0.78313643     0.77000
C1742       C  0.48808270  0.75596132  0.68400511     0.77400
C1743       C  0.03130721  0.84917289  0.74162914     0.78500
C1744       C  0.43334109  0.79256890  0.77932764     0.77600
C1745       C  0.10647589  0.96955962  0.71607175    -0.05400
C1746       C  0.08573184  0.98649491  0.73404736     0.00600
C1747       C  0.09922599  0.00819346  0.75499712    -0.08000
C1748       C  0.13170934  0.51293397  0.75220029    -0.05400
C1749       C  0.15039498  0.99351415  0.73855970     0.00500
C1750       C  0.13804724  0.97208611  0.71820018    -0.07900
C1751       C  0.15753707  0.95231582  0.69803033     0.62500
H1752       H  0.09738727  0.95391276  0.69954898     0.13100
H1753       H  0.14118879  0.53093975  0.76589719     0.13200
C1754       C  0.08722478  0.52713907  0.77938725     0.62700
F1755       F  0.14047792  0.93457572  0.67847462    -0.22500
F1756       F  0.17563873  0.93320516  0.71570172    -0.19800
F1757       F  0.17527211  0.97021463  0.68048737    -0.19500
F1758       F  0.05889891  0.01904966  0.79078272    -0.19500
F1759       F  0.08492232  0.55692737  0.77039948    -0.19900
F1760       F  0.10663504  0.52565446  0.80460806    -0.22500
C1761       C  0.05233561  0.89666323  0.76027289    -0.05400
C1762       C  0.03954493  0.88063672  0.73602008     0.00600
C1763       C  0.03794682  0.89396093  0.70721150    -0.08000
C1764       C  0.04364295  0.92488448  0.70502773    -0.05400
C1765       C  0.05046336  0.94345990  0.73067320     0.00500
C1766       C  0.05989855  0.92724092  0.75793874    -0.07900
C1767       C  0.07878002  0.93988310  0.78435438     0.62500
H1768       H  0.05636190  0.88468988  0.78138210     0.13100
H1769       H  0.04357079  0.93399227  0.68255958     0.13200
C1770       C  0.53116530  0.87564526  0.67738441     0.62700
F1771       F  0.08070349  0.92049102  0.80889705    -0.22500
F1772       F  0.06656457  0.96623206  0.79478343    -0.19800
F1773       F  0.10792044  0.94442656  0.77557681    -0.19500
F1774       F  0.50197670  0.86535664  0.67692990    -0.19500
F1775       F  0.05213754  0.85072424  0.67866360    -0.19900
F1776       F  0.53492226  0.89200861  0.65114270    -0.22500
C1777       C  0.01348962  0.98939889  0.64355354    -0.05400
C1778       C  0.03617116  0.00326563  0.62787184     0.00600
C1779       C  0.06223794  0.01233501  0.64429819    -0.08000
C1780       C  0.06486468  0.00575100  0.67555602    -0.05400
C1781       C  0.04360561  0.98849700  0.69163523     0.00500
C1782       C  0.01582018  0.98266850  0.67464977    -0.07900
C1783       C  0.48760213  0.96956491  0.68388639     0.62500
H1784       H  0.49447111  0.98281861  0.62910678     0.13100
H1785       H  0.08387622  0.01527347  0.68754187     0.13200
C1786       C  0.08769273  0.02839777  0.62906823     0.62700
F1787       F  0.46340088  0.98833704  0.67576000    -0.22500
F1788       F  0.98814123  0.96275354  0.71572930    -0.19800
F1789       F  0.48332866  0.94171635  0.67035806    -0.19500
F1790       F  0.07564378  0.55846747  0.61849411    -0.19500
F1791       F  0.09743190  0.01154767  0.60463614    -0.19900
F1792       F  0.11231499  0.03250663  0.64855080    -0.22500
C1793       C  0.22744825  0.62720269  0.01285254    -0.05400
C1794       C  0.23710465  0.64344993  0.98817373     0.00600
C1795       C  0.23802706  0.62920690  0.95963890    -0.08000
C1796       C  0.23121175  0.59835488  0.95752656    -0.05400
C1797       C  0.22517904  0.57999754  0.98313619     0.00500
C1798       C  0.21974113  0.59656205  0.01095963    -0.07900
C1799       C  0.20436138  0.58433804  0.03872495     0.62500
H1800       H  0.22502826  0.63954866  0.03388407     0.13100
H1801       H  0.22990107  0.58910503  0.93502272     0.13200
C1802       C  0.24698603  0.64619185  0.93157372     0.62700
F1803       F  0.20586637  0.60384728  0.06330158    -0.22500
F1804       F  0.21791997  0.55807196  0.04831398    -0.19800
F1805       F  0.17413519  0.58019388  0.03220978    -0.19500
F1806       F  0.27214393  0.65971811  0.43517061    -0.19500
F1807       F  0.22535603  0.66808914  0.92439559    -0.19900
F1808       F  0.24979072  0.62739285  0.90663802    -0.22500
C1809       C  0.21389586  0.52124352  0.89109917    -0.05400
C1810       C  0.24262497  0.52773999  0.88119813     0.00600
C1811       C  0.26486001  0.53633451  0.90301592    -0.08000
C1812       C  0.25683270  0.53964496  0.93359239    -0.05400
C1813       C  0.22735034  0.53464292  0.94406619     0.00500
C1814       C  0.20681469  0.52078466  0.92212788    -0.07900
C1815       C  0.17975267  0.50106141  0.92825601     0.62500
H1816       H  0.19747563  0.51335669  0.87432226     0.13100
H1817       H  0.27366527  0.54737867  0.94973631     0.13200
C1818       C  0.29655783  0.54382288  0.89390991     0.62700
F1819       F  0.18019955  0.47603676  0.90934156    -0.22500
F1820       F  0.15321215  0.51696610  0.92200900    -0.19800
F1821       F  0.17963513  0.48949749  0.95699854    -0.19500
F1822       F  0.29504277  0.56483325  0.87083844    -0.19500
F1823       F  0.31143231  0.51803620  0.88416450    -0.19900
F1824       F  0.31343344  0.55582717  0.91775560    -0.22500
C1825       C  0.16709634  0.55790914  0.96913778    -0.05400
C1826       C  0.18769047  0.53937659  0.98668787     0.00600
C1827       C  0.17373711  0.52056118  0.50974375    -0.08000
C1828       C  0.14203008  0.52114514  0.51161513    -0.05400
C1829       C  0.12383967  0.53870331  0.99356620     0.00500
C1830       C  0.13578912  0.55825650  0.97252557    -0.07900
C1831       C  0.11541017  0.57894960  0.95336344     0.62500
H1832       H  0.17580057  0.57201968  0.95163558     0.13100
H1833       H  0.13092929  0.50634835  0.52706560     0.13200
C1834       C  0.18886429  0.49668299  0.53056387     0.62700
F1835       F  0.13172968  0.59876204  0.93643698    -0.22500
F1836       F  0.09684112  0.59578022  0.97190048    -0.19800
F1837       F  0.09782075  0.56192069  0.93370412    -0.19500
F1838       F  0.21560061  0.50528429  0.54376196    -0.19500
F1839       F  0.19286772  0.47029195  0.51451858    -0.19900
F1840       F  0.17097052  0.48993340  0.55477743    -0.22500
C1841       C  0.99479252  0.77251450  0.63165275    -0.05400
C1842       C  0.48114872  0.75203038  0.65166226     0.00600
C1843       C  0.46181924  0.73010593  0.63965676    -0.08000
C1844       C  0.45990409  0.72646759  0.60792887    -0.05400
C1845       C  0.47698140  0.74384778  0.58768285     0.00500
C1846       C  0.99107216  0.77102911  0.60004105    -0.07900
C1847       C  0.00170199  0.80058108  0.58581871     0.62500
H1848       H  0.00782768  0.79058077  0.64190437     0.13100
H1849       H  0.44683538  0.70800250  0.59891799     0.13200
C1850       C  0.44429575  0.71011312  0.66035692     0.62700
F1851       F  0.98844065  0.82480815  0.60070496    -0.22500
F1852       F  0.99444141  0.80477755  0.55593912    -0.19800
F1853       F  0.03257763  0.80316323  0.58980852    -0.19500
F1854       F  0.42699335  0.72782108  0.67930525    -0.19500
F1855       F  0.46406345  0.69245859  0.67780805    -0.19900
F1856       F  0.42522214  0.69126179  0.64413406    -0.22500
C1857       C  0.42629119  0.70379220  0.53871811    -0.05400
C1858       C  0.44130575  0.73182100  0.54455395     0.00600
C1859       C  0.42114117  0.75813996  0.54521714    -0.08000
C1860       C  0.38991332  0.75442078  0.54212907    -0.05400
C1861       C  0.37663657  0.72743786  0.53431952     0.00500
C1862       C  0.39500097  0.70148918  0.53191020    -0.07900
C1863       C  0.38176956  0.67170952  0.52174727     0.62500
H1864       H  0.43832078  0.68264176  0.54038159     0.13100
H1865       H  0.37464708  0.77343000  0.54541859     0.13200
C1866       C  0.42982707  0.79090290  0.54919735     0.62700
F1867       F  0.40372444  0.64927634  0.51909397    -0.22500
F1868       F  0.36738767  0.67527994  0.49370601    -0.19800
F1869       F  0.36117561  0.66231982  0.54244973    -0.19500
F1870       F  0.45009410  0.79832729  0.52794580    -0.19500
F1871       F  0.44024412  0.79591186  0.57827184    -0.19900
F1872       F  0.40591460  0.81116216  0.54460203    -0.22500
C1873       C  0.48979310  0.68633942  0.51951679    -0.05400
C1874       C  0.48995118  0.69737250  0.55014471     0.00600
C1875       C  0.49791672  0.67456992  0.57278686    -0.08000
C1876       C  0.49740909  0.64367922  0.56434808    -0.05400
C1877       C  0.49456768  0.63383434  0.53431702     0.00500
C1878       C  0.49261497  0.65565970  0.51134726    -0.07900
C1879       C  0.48953860  0.64657918  0.97827234     0.62500
H1880       H  0.48458258  0.70141127  0.50119322     0.13100
H1881       H  0.50115204  0.62656604  0.58165092     0.13200
C1882       C  0.51005249  0.67841025  0.60522382     0.62700
F1883       F  0.49068851  0.67139553  0.95948185    -0.22500
F1884       F  0.46298790  0.63180888  0.97171784    -0.19800
F1885       F  0.01066133  0.62736609  0.97055219    -0.19500
F1886       F  0.48919451  0.66794221  0.62511455    -0.19500
F1887       F  0.51761304  0.70704004  0.61313564    -0.19900
F1888       F  0.53629265  0.66120630  0.60916957    -0.22500
C1889       C  0.28306066  0.51187957  0.53768412    -0.05400
C1890       C  0.28361045  0.98014441  0.53091904     0.00600
C1891       C  0.26374808  0.97030348  0.50593747    -0.08000
C1892       C  0.24528826  0.49288990  0.49180454    -0.05400
C1893       C  0.24592256  0.52447334  0.99728559     0.00500
C1894       C  0.26878102  0.53372182  0.51873304    -0.07900
C1895       C  0.28445001  0.56463570  0.01978093     0.62500
H1896       H  0.29794746  0.52024445  0.55550572     0.13100
H1897       H  0.23033883  0.48570525  0.47373298     0.13200
C1898       C  0.25789263  0.93782813  0.49439848     0.62700
F1899       F  0.31495606  0.56118553  0.02694914    -0.22500
F1900       F  0.27218042  0.58211291  0.04242399    -0.19800
F1901       F  0.28324593  0.57972889  0.99261182    -0.19500
F1902       F  0.23068103  0.93588803  0.47836131    -0.19500
F1903       F  0.25585931  0.91702836  0.51711730    -0.19900
F1904       F  0.27941740  0.92870908  0.47433759    -0.22500
C1905       C  0.26700048  0.97674622  0.63274778    -0.05400
C1906       C  0.28961368  0.99075586  0.64993993     0.00600
C1907       C  0.31650412  0.99782034  0.63544899    -0.08000
C1908       C  0.31912079  0.99119033  0.60422882    -0.05400
C1909       C  0.29817107  0.97333521  0.58699757     0.00500
C1910       C  0.26996256  0.96849831  0.60203663    -0.07900
C1911       C  0.24157062  0.95409908  0.58920814     0.62500
H1912       H  0.24601069  0.97210905  0.64372317     0.13100
H1913       H  0.33856047  0.00003011  0.59366469     0.13200
C1914       C  0.34479548  0.50912509  0.65433457     0.62700
F1915       F  0.21715570  0.97327781  0.59379990    -0.22500
F1916       F  0.23661617  0.92745575  0.60430923    -0.19800
F1917       F  0.24232438  0.94798546  0.55911114    -0.19500
F1918       F  0.34979871  0.99304734  0.67836593    -0.19500
F1919       F  0.33911318  0.53863814  0.66288993    -0.19900
F1920       F  0.37069681  0.50837983  0.63754424    -0.22500
C1921       C  0.30916242  0.87870386  0.52043813    -0.05400
C1922       C  0.29345429  0.86322696  0.54245890     0.00600
C1923       C  0.28866090  0.87767053  0.57044108    -0.08000
C1924       C  0.29551698  0.90839711  0.57340959    -0.05400
C1925       C  0.30642047  0.92626701  0.54949705     0.00500
C1926       C  0.31728575  0.90931102  0.52364308    -0.07900
C1927       C  0.33861365  0.92102295  0.49974650     0.62500
H1928       H  0.31498873  0.86631823  0.50020365     0.13100
H1929       H  0.29227098  0.91808881  0.59528577     0.13200
C1930       C  0.27709564  0.86071101  0.59754988     0.62700
F1931       F  0.33674367  0.90532279  0.97148128    -0.22500
F1932       F  0.36718881  0.92411488  0.51233051    -0.19800
F1933       F  0.32417919  0.95148022  0.98590892    -0.19500
F1934       F  0.29302104  0.83377216  0.60131120    -0.19500
F1935       F  0.24678146  0.85496316  0.59306896    -0.19900
F1936       F  0.28044203  0.87696660  0.62425546    -0.22500
C1937       C  0.39620235  0.97041878  0.55620588    -0.05400
C1938       C  0.40089852  0.99150611  0.53319705     0.00600
C1939       C  0.37535007  0.50349759  0.51799131    -0.08000
C1940       C  0.34667279  0.99228824  0.52349409    -0.05400
C1941       C  0.34090778  0.97130026  0.54696991     0.00500
C1942       C  0.36735789  0.96003810  0.56378832    -0.07900
C1943       C  0.36783522  0.93482409  0.58750151     0.62500
H1944       H  0.41592277  0.96126685  0.56821677     0.13100
H1945       H  0.32858096  0.50100854  0.51016599     0.13200
C1946       C  0.37785288  0.52681863  0.49294142     0.62700
F1947       F  0.39242220  0.93740373  0.60737871    -0.22500
F1948       F  0.37014368  0.90720712  0.57309312    -0.19800
F1949       F  0.34307779  0.93493525  0.60536269    -0.19500
F1950       F  0.39652066  0.51482141  0.96976442    -0.19500
F1951       F  0.38940253  0.55317765  0.50491874    -0.19900
F1952       F  0.35027903  0.53413925  0.47908508    -0.22500
C1953       C  0.25327376  0.64259097  0.76190182    -0.05400
C1954       C  0.23724783  0.62258623  0.74385360     0.00600
C1955       C  0.21537662  0.63325684  0.72287687    -0.08000
C1956       C  0.21231886  0.66448615  0.71870790    -0.05400
C1957       C  0.22848510  0.68618552  0.73658331     0.00500
C1958       C  0.24869613  0.67402011  0.76019851    -0.07900
C1959       C  0.26566500  0.69164990  0.78454721     0.62500
H1960       H  0.26948722  0.63272872  0.77800896     0.13100
H1961       H  0.19627217  0.67239513  0.70148239     0.13200
C1962       C  0.19543756  0.61165416  0.70513116     0.62700
F1963       F  0.24584005  0.70823922  0.80104328    -0.22500
F1964       F  0.28636578  0.70964768  0.77192828    -0.19800
F1965       F  0.28153410  0.67348153  0.80521554    -0.19500
F1966       F  0.17936459  0.59466602  0.72507121    -0.19500
F1967       F  0.21303684  0.59259589  0.68780461    -0.19900
F1968       F  0.17496443  0.62667150  0.68598269    -0.22500
C1969       C  0.16782362  0.70735388  0.74438452    -0.05400
C1970       C  0.18709148  0.72840416  0.73046737     0.00600
C1971       C  0.17276301  0.75636185  0.72034837    -0.08000
C1972       C  0.14146010  0.76075143  0.72399255    -0.05400
C1973       C  0.12348593  0.73930169  0.73739208     0.00500
C1974       C  0.13681712  0.71231303  0.74815640    -0.07900
C1975       C  0.11860517  0.68945629  0.76520945     0.62500
H1976       H  0.17720543  0.68742605  0.75504015     0.13100
H1977       H  0.13079127  0.78181472  0.71663979     0.13200
C1978       C  0.18784006  0.78309623  0.70571184     0.62700
F1979       F  0.13638953  0.66590984  0.77668057    -0.22500
F1980       F  0.09691125  0.67734921  0.74589772    -0.19800
F1981       F  0.10468110  0.70338043  0.78935755    -0.19500
F1982       F  0.17391035  0.78874330  0.67777125    -0.19500
F1983       F  0.21814044  0.77942891  0.70102561    -0.19900
F1984       F  0.18405345  0.80832770  0.72383976    -0.22500
C1985       C  0.20494425  0.72421968  0.66893704    -0.05400
C1986       C  0.22900774  0.71957866  0.69075147     0.00600
C1987       C  0.25744755  0.71108541  0.67717362    -0.08000
C1988       C  0.26242432  0.71981387  0.64694097    -0.05400
C1989       C  0.23905931  0.72985309  0.62744433     0.00500
C1990       C  0.20937278  0.72943255  0.63790863    -0.07900
C1991       C  0.18234947  0.73275950  0.61611361     0.62500
H1992       H  0.18193951  0.72295829  0.67563480     0.13100
H1993       H  0.28455903  0.71717614  0.63746149     0.13200
C1994       C  0.28148019  0.68976006  0.69127030     0.62700
F1995       F  0.15547181  0.72676261  0.62988550    -0.22500
F1996       F  0.18543742  0.71268168  0.59227256    -0.19800
F1997       F  0.18044898  0.76182680  0.60501288    -0.19500
F1998       F  0.26985398  0.66136875  0.69408159    -0.19500
F1999       F  0.29191893  0.69955022  0.71891259    -0.19900
F2000       F  0.30652627  0.68659534  0.67341382    -0.22500
C2001       C  0.03903829  0.78197751  0.51961146    -0.05400
C2002       C  0.03084377  0.78377840  0.98829280     0.00600
C2003       C  0.00305447  0.76842578  0.97927544    -0.08000
C2004       C  0.48585180  0.75656354  0.50262924    -0.05400
C2005       C  0.49686512  0.75043918  0.53233133     0.00500
C2006       C  0.02766758  0.75865184  0.53732858    -0.07900
C2007       C  0.05005312  0.74253823  0.55907541     0.62500
H2008       H  0.05768091  0.79460278  0.52908457     0.13100
H2009       H  0.46370974  0.74847676  0.49621406     0.13200
C2010       C  0.48731537  0.76373324  0.94894399     0.62700
F2011       F  0.05125882  0.71213621  0.55237101    -0.22500
F2012       F  0.04344832  0.74650922  0.58884142    -0.19800
F2013       F  0.07883563  0.75338792  0.55649191    -0.19500
F2014       F  0.50022075  0.77572836  0.92430560    -0.19500
F2015       F  0.45798704  0.77508295  0.94913867    -0.19900
F2016       F  0.48597886  0.73299528  0.94388720    -0.22500
C2017       C  0.09772367  0.77209803  0.99369184    -0.05400
C2018       C  0.08817192  0.79825799  0.97702207     0.00600
C2019       C  0.11261268  0.81660037  0.96627795    -0.08000
C2020       C  0.14262473  0.81023450  0.97673779    -0.05400
C2021       C  0.15045566  0.78480200  0.99381903     0.00500
C2022       C  0.12794529  0.76467795  0.00127735    -0.07900
C2023       C  0.13587971  0.73561815  0.51861286     0.62500
H2024       H  0.08185785  0.75534268  0.99909499     0.13100
H2025       H  0.16109378  0.82391241  0.96974268     0.13200
C2026       C  0.10970961  0.84038349  0.94114346     0.62700
F2027       F  0.11088875  0.71807078  0.52249699    -0.22500
F2028       F  0.14873335  0.74172222  0.54682627    -0.19800
F2029       F  0.15635366  0.71854840  0.99987121    -0.19500
F2030       F  0.13581120  0.85667466  0.93858820    -0.19500
F2031       F  0.08720076  0.86141010  0.94593434    -0.19900
F2032       F  0.10487052  0.82617030  0.91359100    -0.22500
C2033       C  0.05569865  0.77002766  0.88781951    -0.05400
C2034       C  0.04491095  0.79413188  0.87062044     0.00600
C2035       C  0.03955152  0.82223025  0.88404553    -0.08000
C2036       C  0.04329718  0.82474037  0.91555131    -0.05400
C2037       C  0.05096053  0.79982163  0.93470525     0.00500
C2038       C  0.05890547  0.77155874  0.91954447    -0.07900
C2039       C  0.06971504  0.74195759  0.93440118     0.62500
H2040       H  0.06080589  0.74933742  0.87570452     0.13100
H2041       H  0.03988415  0.84680459  0.92481139     0.13200
C2042       C  0.02935274  0.84925460  0.86502717     0.62700
F2043       F  0.06567791  0.71742721  0.91526062    -0.22500
F2044       F  0.05396838  0.73534163  0.95977030    -0.19800
F2045       F  0.10026018  0.74310373  0.94099024    -0.19500
F2046       F  0.00174518  0.84355968  0.85102213    -0.19500
F2047       F  0.05026704  0.85453895  0.84312051    -0.19900
F2048       F  0.02632648  0.87520318  0.88229860    -0.22500
C2049       C  0.06373318  0.85408432  0.00107280    -0.05400
C2050       C  0.04352560  0.83837128  0.98110730     0.00600
C2051       C  0.01561749  0.85494443  0.97360916    -0.08000
C2052       C  0.01438669  0.88650200  0.97781430    -0.05400
C2053       C  0.03658392  0.90199022  0.99375828     0.00500
C2054       C  0.06091556  0.88542709  0.00713659    -0.07900
C2055       C  0.08396525  0.90106615  0.02738656     0.62500
H2056       H  0.08248661  0.84200750  0.01174527     0.13100
H2057       H  0.49631723  0.90096546  0.46848108     0.13200
C2058       C  0.98580606  0.84116266  0.96350549     0.62700
F2059       F  0.10650300  0.88137842  0.03787384    -0.22500
F2060       F  0.06986810  0.91349327  0.05217994    -0.19800
F2061       F  0.09724082  0.92373858  0.01136536    -0.19500
F2062       F  0.97761561  0.82360592  0.48401014    -0.19500
F2063       F  0.48702925  0.82778820  0.93670029    -0.19900
F2064       F  0.46177245  0.86319111  0.96070503    -0.22500
C2065       C  0.49349961  0.51260087  0.78481502    -0.05400
C2066       C  0.49447343  0.54393642  0.77856922     0.00600
C2067       C  0.01432216  0.55225445  0.75433612    -0.08000
C2068       C  0.03035764  0.52930362  0.73877547    -0.05400
C2069       C  0.02814265  0.99821419  0.74582291     0.00500
C2070       C  0.00704494  0.98952879  0.76876710    -0.07900
C2071       C  0.49872933  0.95733402  0.77784390     0.62500
H2072       H  0.47709617  0.00533529  0.80072585     0.13100
H2073       H  0.04547616  0.53623111  0.72164307     0.13200
C2074       C  0.01998309  0.58436807  0.74258728     0.62700
F2075       F  0.46907672  0.95720083  0.78690102    -0.22500
F2076       F  0.01412579  0.95077867  0.80634153    -0.19800
F2077       F  0.49971964  0.93531557  0.75602905    -0.19500
F2078       F  0.04627372  0.58573318  0.72648016    -0.19500
F2079       F  0.02363289  0.60542164  0.76520721    -0.19900
F2080       F  0.99714623  0.59328348  0.72266568    -0.22500
C2081       C  0.48363608  0.61675243  0.81996190    -0.05400
C2082       C  0.47373434  0.59902781  0.79466931     0.00600
C2083       C  0.46383393  0.61636009  0.76818944    -0.08000
C2084       C  0.97185193  0.64535082  0.76541865    -0.05400
C2085       C  0.48799235  0.66151116  0.78930201     0.00500
C2086       C  0.49122368  0.64735833  0.81774737    -0.07900
C2087       C  0.50290236  0.66430145  0.84558606     0.62500
H2088       H  0.48499368  0.60722768  0.84223503     0.13100
H2089       H  0.96682934  0.65798288  0.74487387     0.13200
C2090       C  0.93752072  0.60631020  0.74501268     0.62700
F2091       F  0.50676915  0.64572981  0.87060059    -0.22500
F2092       F  0.48254836  0.68698042  0.85298061    -0.19800
F2093       F  0.53046059  0.67676037  0.83976007    -0.19500
F2094       F  0.94439278  0.57937692  0.73168179    -0.19500
F2095       F  0.93384724  0.62688586  0.72158683    -0.19900
F2096       F  0.90995370  0.60482803  0.75849848    -0.22500
C2097       C  0.41601385  0.57199740  0.80678102    -0.05400
C2098       C  0.43776769  0.55556795  0.78960809     0.00600
C2099       C  0.42544983  0.53332583  0.76827293    -0.08000
C2100       C  0.39510130  0.52542375  0.77070551    -0.05400
C2101       C  0.37470385  0.54223659  0.78719663     0.00500
C2102       C  0.38482358  0.56672765  0.80467912    -0.07900
C2103       C  0.36271591  0.58721580  0.82077133     0.62500
H2104       H  0.42382133  0.58928750  0.82230047     0.13100
H2105       H  0.38608202  0.50731135  0.75668968     0.13200
C2106       C  0.43824929  0.51814221  0.73984540     0.62700
F2107       F  0.37712675  0.60939507  0.83755094    -0.22500
F2108       F  0.34598818  0.57041849  0.84018541    -0.19800
F2109       F  0.34355293  0.60114616  0.79960088    -0.19500
F2110       F  0.43936201  0.48730741  0.74393192    -0.19500
F2111       F  0.46572071  0.52708528  0.73059426    -0.20700
F2112       F  0.41864920  0.52412145  0.71542843    -0.22500
C2113       C  0.01044588  0.54796461  0.88042353    -0.05400
C2114       C  0.48657143  0.53633044  0.89688858     0.00600
C2115       C  0.45917617  0.53108860  0.88111376    -0.08000
C2116       C  0.45668382  0.53770288  0.84976019    -0.05400
C2117       C  0.47918354  0.55297505  0.83324621     0.00500
C2118       C  0.00778112  0.55566199  0.84938960    -0.07900
C2119       C  0.03683238  0.56835613  0.83809778     0.62500
H2120       H  0.03144304  0.55216873  0.89286323     0.13100
H2121       H  0.43663986  0.52988403  0.83830564     0.13200
C2122       C  0.43265676  0.51821121  0.89736416     0.62700
F2123       F  0.06010450  0.54759524  0.84324051    -0.22500
F2124       F  0.04364383  0.59441154  0.85397175    -0.19800
F2125       F  0.03592475  0.57501874  0.80817696    -0.19500
F2126       F  0.42292906  0.53868109  0.91883993    -0.19500
F2127       F  0.44128801  0.49149710  0.91149852    -0.19900
F2128       F  0.40850759  0.51244708  0.87776320    -0.22500
C2129       C  0.25152505  0.78179807  0.78670097    -0.05400
C2130       C  0.28263517  0.78296437  0.78113522     0.00600
C2131       C  0.29069639  0.77038826  0.75197936    -0.08000
C2132       C  0.26815732  0.75512935  0.73452949    -0.05400
C2133       C  0.24067596  0.74485720  0.74593632     0.00500
C2134       C  0.23176116  0.76046708  0.77346966    -0.07900
C2135       C  0.20281890  0.75638694  0.79137024     0.62500
H2136       H  0.24316321  0.79610631  0.80433284     0.13100
H2137       H  0.27302845  0.75006246  0.71156038     0.13200
C2138       C  0.32184417  0.77095586  0.73754017     0.62700
F2139       F  0.20659578  0.76584133  0.82122297    -0.22500
F2140       F  0.19467849  0.72679510  0.79335144    -0.19800
F2141       F  0.17939779  0.77355294  0.77896061    -0.19500
F2142       F  0.34124083  0.75077245  0.75205015    -0.19500
F2143       F  0.33390840  0.79919452  0.73759912    -0.19900
F2144       F  0.32084609  0.76214256  0.70737414    -0.22500
C2145       C  0.29098252  0.84740463  0.76954231    -0.05400
C2146       C  0.28858353  0.83602392  0.79938320     0.00600
C2147       C  0.27433397  0.85664146  0.82049857    -0.08000
C2148       C  0.27435846  0.88781991  0.81409684    -0.05400
C2149       C  0.28131946  0.89885620  0.78563526     0.00500
C2150       C  0.28878258  0.87824786  0.76250607    -0.07900
C2151       C  0.29626794  0.88880935  0.73088133     0.62500
H2152       H  0.29683203  0.83213464  0.75174186     0.13100
H2153       H  0.26621950  0.90379533  0.83082634     0.13200
C2154       C  0.25561440  0.84943269  0.84802678     0.62700
F2155       F  0.30877674  0.86584082  0.71369871    -0.22500
F2156       F  0.31691182  0.91175442  0.73285846    -0.19800
F2157       F  0.27034902  0.89915803  0.71582514    -0.19500
F2158       F  0.27089296  0.85807350  0.87429986    -0.19500
F2159       F  0.24743484  0.81995247  0.85034217    -0.19900
F2160       F  0.22872232  0.86587475  0.84618953    -0.22500
C2161       C  0.38660226  0.77295024  0.79957506    -0.05400
C2162       C  0.40079190  0.79709258  0.78621661     0.00600
C2163       C  0.38402226  0.82402419  0.78105639    -0.08000
C2164       C  0.35358401  0.82549313  0.78957652    -0.05400
C2165       C  0.33740346  0.80002663  0.79959314     0.00500
C2166       C  0.35571396  0.77324640  0.80608458    -0.07900
C2167       C  0.34475419  0.74444257  0.82049003     0.62500
H2168       H  0.40027322  0.75301445  0.80460169     0.13100
H2169       H  0.34275581  0.84720789  0.78802226     0.13200
C2170       C  0.39802457  0.85130833  0.76672880     0.62700
F2171       F  0.36396734  0.71999593  0.81559409    -0.22500
F2172       F  0.31751581  0.73656741  0.80817184    -0.19800
F2173       F  0.34290506  0.74817559  0.85147385    -0.19500
F2174       F  0.40493380  0.84467586  0.73704327    -0.19500
F2175       F  0.42399571  0.85898781  0.78279931    -0.19900
F2176       F  0.37869604  0.87621777  0.76628117    -0.22500
C2177       C  0.28127139  0.76760415  0.84668003    -0.05400
C2178       C  0.29873419  0.79315164  0.83938884     0.00600
C2179       C  0.31299910  0.80841020  0.86497658    -0.08000
C2180       C  0.30451280  0.80089068  0.89461910    -0.05400
C2181       C  0.28539997  0.77709307  0.90073730     0.00500
C2182       C  0.27518496  0.75891488  0.87646177    -0.07900
C2183       C  0.25892054  0.72961536  0.88191429     0.62500
H2184       H  0.27252353  0.75323914  0.82915528     0.13100
H2185       H  0.31353334  0.81331592  0.91384606     0.13200
C2186       C  0.33866550  0.83093069  0.86301451     0.62700
F2187       F  0.25700456  0.71188507  0.85629755    -0.22500
F2188       F  0.22988973  0.73577441  0.89110176    -0.19800
F2189       F  0.27451870  0.71277479  0.90376483    -0.19500
F2190       F  0.34518414  0.84456211  0.89067394    -0.19500
F2191       F  0.33193253  0.85393043  0.84303318    -0.19900
F2192       F  0.36474811  0.81604471  0.85462786    -0.22500
C2193       C  0.80302196  0.30305843  0.30514043    -0.02100
C2194       C  0.97202061  0.06355282  0.29743347    -0.02100
C2195       C  0.55225611  0.30623129  0.47137645    -0.02100
C2196       C  0.72332695  0.22003963  0.22695214    -0.02100
C2197       C  0.80717657  0.46229997  0.05331636    -0.02100
C2198       C  0.97791718  0.23127999  0.05501779    -0.02100
C2199       C  0.72135475  0.04427232  0.47815050    -0.02100
C2200       C  0.55292378  0.48074502  0.22578209    -0.02100
Zn2201     Zn  0.53765714  0.04477410  0.03587436     1.49700
Zn2202     Zn  0.53464756  0.00099447  0.47652465     1.49400
Zn2203     Zn  0.49964858  0.48407020  0.03674229     1.49100
Zn2204     Zn  0.97674629  0.04205259  0.99633257     1.49500
O2205       O  0.51179553  0.01824561  0.01093953    -1.83700
O2206       O  0.57876665  0.04585699  0.01866833    -0.74300
O2207       O  0.54030973  0.45518711  0.48092471    -0.74200
O2208       O  0.51399113  0.48896091  0.07994541    -0.73700
O2209       O  0.57662118  0.01746818  0.47727580    -0.74400
O2210       O  0.54270962  0.03085142  0.07938986    -0.74000
O2211       O  0.51644813  0.44356182  0.02300861    -0.74500
O2212       O  0.93836818  0.02367923  0.01249194    -0.73900
O2213       O  0.51485054  0.01367121  0.43608432    -0.74700
O2214       O  0.95457462  0.48304399  0.03762325    -0.74100
O2215       O  0.97581709  0.04225812  0.44926900    -0.74500
O2216       O  0.97980341  0.08670532  0.01065333    -0.74500
O2217       O  0.52123308  0.08740445  0.03769566    -0.74200
C2218       C  0.59102245  0.03451676  0.49560417     0.77500
C2219       C  0.53235620  0.43615820  0.50067597     0.78000
C2220       C  0.53079758  0.50767961  0.09390823     0.77000
C2221       C  0.93311971  0.49986741  0.02707506     0.77400
C2222       C  0.99283156  0.03043659  0.42932661     0.78500
C2223       C  0.99908334  0.10046968  0.02751962     0.77600
Zn2224     Zn  0.73086893  0.03319079  0.28192029     1.49700
Zn2225     Zn  0.75016032  0.47989208  0.23838825     1.49400
Zn2226     Zn  0.78845017  0.03792024  0.23929777     1.49100
Zn2227     Zn  0.78991231  0.99569741  0.29933354     1.49500
O2228       O  0.76520099  0.01148842  0.26495347    -1.83700
O2229       O  0.69267244  0.01572621  0.26589281    -0.74300
O2230       O  0.76836411  0.48016786  0.19701650    -0.74200
O2231       O  0.76681693  0.07798960  0.23480265    -0.73700
O2232       O  0.70490804  0.48265098  0.23128004    -0.74400
O2233       O  0.72918754  0.07578299  0.26706507    -0.74000
O2234       O  0.79511976  0.02098141  0.19652489    -0.74500
O2235       O  0.83174732  0.01334566  0.29878775    -0.73900
O2236       O  0.76102376  0.44020443  0.25731595    -0.74700
O2237       O  0.82907104  0.04510925  0.25965018    -0.74100
O2238       O  0.79043737  0.45032195  0.29773204    -0.74500
O2239       O  0.77301239  0.00763504  0.34029212    -0.74500
O2240       O  0.73110087  0.03344642  0.32836675    -0.74200
C2241       C  0.68490946  0.49845281  0.24437534     0.77500
C2242       C  0.78546125  0.49780879  0.18307567     0.78000
C2243       C  0.74423245  0.08989826  0.24778778     0.77000
C2244       C  0.84329338  0.03342704  0.28237014     0.77400
C2245       C  0.77753508  0.43154301  0.27980517     0.78500
C2246       C  0.74974093  0.02262063  0.34824668     0.77600
Zn2247     Zn  0.79796471  0.27523478  0.99963569     1.49700
Zn2248     Zn  0.74013081  0.28135491  0.04142831     1.49400
Zn2249     Zn  0.73788137  0.24236637  0.47849110     1.49100
Zn2250     Zn  0.77883762  0.21834782  0.03786272     1.49500
O2251       O  0.76354026  0.25410173  0.01506178    -1.83700
O2252       O  0.80065436  0.31686939  0.01702220    -0.74300
O2253       O  0.69705306  0.28833758  0.02461177    -0.74200
O2254       O  0.75524292  0.25766966  0.43966440    -0.73700
O2255       O  0.76055708  0.32197936  0.04556596    -0.74400
O2256       O  0.79760952  0.27954710  0.45399791    -0.74000
O2257       O  0.69569042  0.26026538  0.48120445    -0.74500
O2258       O  0.76211141  0.18081121  0.01820687    -0.73900
O2259       O  0.73706408  0.26299404  0.08341034    -0.74700
O2260       O  0.73454796  0.19660342  0.47584902    -0.74100
O2261       O  0.76394287  0.22020539  0.08115054    -0.74500
O2262       O  0.82530610  0.21450049  0.03963987    -0.74500
O2263       O  0.83611298  0.25378370  0.01132130    -0.74200
C2264       C  0.78445526  0.33257434  0.03469327     0.77500
C2265       C  0.68257248  0.27770290  0.49992003     0.78000
C2266       C  0.77914696  0.27136223  0.43318406     0.77000
C2267       C  0.74449228  0.17541353  0.49310777     0.77400
C2268       C  0.74740353  0.23881521  0.09572401     0.78500
C2269       C  0.84451334  0.23127609  0.02743412     0.77600
Zn2270     Zn  0.99198457  0.26007689  0.29749741     1.49700
Zn2271     Zn  0.55046905  0.29374420  0.27494720     1.49400
Zn2272     Zn  0.52610969  0.23656570  0.23987812     1.49100
Zn2273     Zn  0.98777922  0.30036972  0.23805601     1.49500
O2274       O  0.51386212  0.27273496  0.26230502    -1.83700
O2275       O  0.51210686  0.27493132  0.33490140    -0.74300
O2276       O  0.58838929  0.27328719  0.26101366    -0.74200
O2277       O  0.51152043  0.19868401  0.25922804    -0.73700
O2278       O  0.55303470  0.29838191  0.31994564    -0.74400
O2279       O  0.98819264  0.21478134  0.30009436    -0.74000
O2280       O  0.57177011  0.23340216  0.23564701    -0.74500
O2281       O  0.98157170  0.28151047  0.19706883    -0.73900
O2282       O  0.55092173  0.33493454  0.25810087    -0.74700
O2283       O  0.50684185  0.23783374  0.19846136    -0.74100
O2284       O  0.50726398  0.34113919  0.23279904    -0.74500
O2285       O  0.94577705  0.30649017  0.25567369    -0.74500
O2286       O  0.94990597  0.27707663  0.29604985    -0.74200
C2287       C  0.53580541  0.28976239  0.34055080     0.77500
C2288       C  0.59336659  0.24963821  0.24545718     0.78000
C2289       C  0.99691918  0.19341626  0.28294385     0.77000
C2290       C  0.99014832  0.25685149  0.18484816     0.77400
C2291       C  0.53274025  0.35102453  0.24204933     0.78500
C2292       C  0.93424469  0.29461454  0.27878462     0.77600
C2293       C  0.60788719  0.47175306  0.21431106    -0.05400
C2294       C  0.58737623  0.48852535  0.23270280     0.00600
C2295       C  0.60107557  0.51034872  0.25342397    -0.08000
C2296       C  0.63246546  0.01290898  0.25324378    -0.05400
C2297       C  0.65198899  0.49537750  0.23669567     0.00500
C2298       C  0.63947050  0.47421667  0.21618147    -0.07900
C2299       C  0.65878456  0.45473361  0.19559111     0.62500
H2300       H  0.59861374  0.45615534  0.19783575     0.13100
H2301       H  0.64238225  0.03115511  0.26618479     0.13200
C2302       C  0.58656276  0.03179415  0.27599934     0.62700
F2303       F  0.64154694  0.43747014  0.17574449    -0.22500
F2304       F  0.67685143  0.43521154  0.21282315    -0.19800
F2305       F  0.67656152  0.47288648  0.17835134    -0.19500
F2306       F  0.56133317  0.52128320  0.29016489    -0.19500
F2307       F  0.58102852  0.05915915  0.26196296    -0.19900
F2308       F  0.60598479  0.03708380  0.30058026    -0.22500
C2309       C  0.55459554  0.39858153  0.25988025    -0.05400
C2310       C  0.54129562  0.38241194  0.23596214     0.00600
C2311       C  0.53933716  0.39561718  0.20706052    -0.08000
C2312       C  0.54508451  0.42654016  0.20460734    -0.05400
C2313       C  0.55231877  0.44524434  0.23003146     0.00500
C2314       C  0.56218959  0.42914639  0.25720810    -0.07900
C2315       C  0.58152224  0.44197842  0.28318579     0.62500
H2316       H  0.55892924  0.38677784  0.28103433     0.13100
H2317       H  0.54483267  0.43554434  0.18208960     0.13200
C2318       C  0.03486503  0.37654721  0.17849439     0.62700
F2319       F  0.58396178  0.42272625  0.30780758    -0.22500
F2320       F  0.56943390  0.46836711  0.29369030    -0.19800
F2321       F  0.61045702  0.44654486  0.27380323    -0.19500
F2322       F  0.00619343  0.36498048  0.17799230    -0.19500
F2323       F  0.55399845  0.35280789  0.17820051    -0.19900
F2324       F  0.03788406  0.39304517  0.15221151    -0.22500
C2325       C  0.51400271  0.48992613  0.14320743    -0.05400
C2326       C  0.53639860  0.50379423  0.12715404     0.00600
C2327       C  0.56246058  0.51343630  0.14319475    -0.08000
C2328       C  0.56536402  0.50748438  0.17453985    -0.05400
C2329       C  0.54449020  0.49018876  0.19103590     0.00500
C2330       C  0.51658574  0.48389829  0.17442025    -0.07900
C2331       C  0.98920154  0.47019874  0.18516862     0.62500
H2332       H  0.99452630  0.48479573  0.13053661     0.13100
H2333       H  0.58434317  0.51741053  0.18622847     0.13200
C2334       C  0.58765927  0.52939251  0.12743950     0.62700
F2335       F  0.96474409  0.48914305  0.17846968    -0.22500
F2336       F  0.48905431  0.46559715  0.21623337    -0.19800
F2337       F  0.98462345  0.44287483  0.17067577    -0.19500
F2338       F  0.57962485  0.05731955  0.11736330    -0.19500
F2339       F  0.59713054  0.51231404  0.10304519    -0.19900
F2340       F  0.61251152  0.53372912  0.14654462    -0.22500
C2341       C  0.72564820  0.12760748  0.51170344    -0.05400
C2342       C  0.73591070  0.14367094  0.48719615     0.00600
C2343       C  0.73749437  0.12923332  0.45881636    -0.08000
C2344       C  0.73098925  0.09827145  0.45678202    -0.05400
C2345       C  0.72446154  0.08007670  0.48238286     0.00500
C2346       C  0.71810454  0.09692137  0.50986096    -0.07900
C2347       C  0.70200773  0.08494769  0.53730645     0.62500
H2348       H  0.72272787  0.14012262  0.53256312     0.13100
H2349       H  0.73041561  0.08878876  0.43436154     0.13200
C2350       C  0.74680972  0.14619729  0.43088703     0.62700
F2351       F  0.70251815  0.10482092  0.56161766    -0.22500
F2352       F  0.71560933  0.05897568  0.54764933    -0.19800
F2353       F  0.67200920  0.08042034  0.52997533    -0.19500
F2354       F  0.77405360  0.16000430  0.93774955    -0.19500
F2355       F  0.72514509  0.16795196  0.42334282    -0.19900
F2356       F  0.75013117  0.12735298  0.40606494    -0.22500
C2357       C  0.71470551  0.02041475  0.39084602    -0.05400
C2358       C  0.74354871  0.02675441  0.38119821     0.00600
C2359       C  0.76563710  0.03523663  0.40319776    -0.08000
C2360       C  0.75721320  0.03922313  0.43359424    -0.05400
C2361       C  0.72760407  0.03428911  0.44378160     0.00500
C2362       C  0.70744199  0.01997302  0.42180354    -0.07900
C2363       C  0.68075452  0.99967502  0.42771396     0.62500
H2364       H  0.69843693  0.01236406  0.37399487     0.13100
H2365       H  0.77387462  0.04716952  0.44982227     0.13200
C2366       C  0.79768888  0.04151362  0.39445912     0.62700
F2367       F  0.68269451  0.97408785  0.40967560    -0.22500
F2368       F  0.65401374  0.01463349  0.41999991    -0.19800
F2369       F  0.67977259  0.98900841  0.45674637    -0.19500
F2370       F  0.79718579  0.06164892  0.37063993    -0.19500
F2371       F  0.81195267  0.01494482  0.38590951    -0.19900
F2372       F  0.81444712  0.05391385  0.41816901    -0.22500
C2373       C  0.66687073  0.05697808  0.46744327    -0.05400
C2374       C  0.68738287  0.03908361  0.48573688     0.00600
C2375       C  0.67396317  0.02025766  0.00981191    -0.08000
C2376       C  0.64221771  0.01932960  0.01042713    -0.05400
C2377       C  0.62345101  0.03807881  0.49185553     0.00500
C2378       C  0.63550656  0.05708329  0.47033699    -0.07900
C2379       C  0.61530024  0.07687063  0.45003376     0.62500
H2380       H  0.67572938  0.07076586  0.44975495     0.13100
H2381       H  0.63129519  0.00373450  0.02523483     0.13200
C2382       C  0.68912874  0.99719808  0.03148692     0.62700
F2383       F  0.63170782  0.09736353  0.43401406    -0.22500
F2384       F  0.59497933  0.09298696  0.46730687    -0.19800
F2385       F  0.59961262  0.05901418  0.42952284    -0.19500
F2386       F  0.71615038  0.00576578  0.04399777    -0.19500
F2387       F  0.69254938  0.97007783  0.01658262    -0.19900
F2388       F  0.67132580  0.99199437  0.05617755    -0.22500
C2389       C  0.49685886  0.27208153  0.13308489    -0.05400
C2390       C  0.98340079  0.25234395  0.15256084     0.00600
C2391       C  0.96400908  0.23031304  0.14084586    -0.08000
C2392       C  0.96180605  0.22647099  0.10915038    -0.05400
C2393       C  0.97873111  0.24365906  0.08861692     0.00500
C2394       C  0.49289042  0.27050169  0.10154516    -0.07900
C2395       C  0.50417005  0.29970690  0.08721006     0.62500
H2396       H  0.51050863  0.28979900  0.14315429     0.13100
H2397       H  0.94859835  0.20800177  0.10037321     0.13200
C2398       C  0.94684966  0.21028206  0.16181842     0.62700
F2399       F  0.49199799  0.32430485  0.10242487    -0.22500
F2400       F  0.49639183  0.30425489  0.05751857    -0.19800
F2401       F  0.53519754  0.30122208  0.09060610    -0.19500
F2402       F  0.92996713  0.22792072  0.18120178    -0.19500
F2403       F  0.96693197  0.19250862  0.17878414    -0.19900
F2404       F  0.92743467  0.19153968  0.14589014    -0.22500
C2405       C  0.92664654  0.20419086  0.04076124    -0.05400
C2406       C  0.94206519  0.23206900  0.04608434     0.00600
C2407       C  0.92221100  0.25865943  0.04654604    -0.08000
C2408       C  0.89097022  0.25546921  0.04231689    -0.05400
C2409       C  0.87739562  0.22854413  0.03481028     0.00500
C2410       C  0.89539652  0.20223550  0.03354919    -0.07900
C2411       C  0.88185164  0.17243443  0.02392490     0.62500
H2412       H  0.93837728  0.18291967  0.04313813     0.13100
H2413       H  0.87590937  0.27478534  0.04462757     0.13200
C2414       C  0.93134103  0.29119719  0.05135537     0.62700
F2415       F  0.90345236  0.14952891  0.02248033    -0.22500
F2416       F  0.86824731  0.17546412  0.99545079    -0.19800
F2417       F  0.86054484  0.16403358  0.04433090    -0.19500
F2418       F  0.95134996  0.29883536  0.02997068    -0.19500
F2419       F  0.94232460  0.29533953  0.08037294    -0.19900
F2420       F  0.90768721  0.31191648  0.04777092    -0.22500
C2421       C  0.98906353  0.18609178  0.02001670    -0.05400
C2422       C  0.99052809  0.19703860  0.05067720     0.00600
C2423       C  0.99955261  0.17414240  0.07294784    -0.08000
C2424       C  0.99956362  0.14326981  0.06420492    -0.05400
C2425       C  0.99552307  0.13349431  0.03424547     0.00500
C2426       C  0.99180352  0.15545848  0.01152910    -0.07900
C2427       C  0.99264543  0.14715349  0.47864621     0.62500
H2428       H  0.98280152  0.20125042  0.00205981     0.13100
H2429       H  0.00418883  0.12607511  0.08124630     0.13200
C2430       C  0.01154962  0.17773489  0.10550704     0.62700
F2431       F  0.99485223  0.17205952  0.46011994    -0.22500
F2432       F  0.96636466  0.13251569  0.47066051    -0.19800
F2433       F  0.51315871  0.12798791  0.47117796    -0.19500
F2434       F  0.99066977  0.16684512  0.12515084    -0.19500
F2435       F  0.01884262  0.20628480  0.11391545    -0.19900
F2436       F  0.03793250  0.16073599  0.10940923    -0.22500
C2437       C  0.78318965  0.01196072  0.03766131    -0.05400
C2438       C  0.78356086  0.48059491  0.03153845     0.00600
C2439       C  0.76293537  0.47075387  0.00711651    -0.08000
C2440       C  0.74526264  0.99312001  0.99186248    -0.05400
C2441       C  0.74552909  0.02466809  0.49725833     0.00500
C2442       C  0.76912850  0.03383290  0.01864534    -0.07900
C2443       C  0.78320740  0.06539247  0.52005077     0.62500
H2444       H  0.79824409  0.02031767  0.05533005     0.13100
H2445       H  0.73043892  0.98595599  0.97370712     0.13200
C2446       C  0.75549547  0.43832397  0.99625291     0.62700
F2447       F  0.81357916  0.06267272  0.52812617    -0.22500
F2448       F  0.76989755  0.08280696  0.54212589    -0.19800
F2449       F  0.78247865  0.08017881  0.49270752    -0.19500
F2450       F  0.72688414  0.43702587  0.98294458    -0.19500
F2451       F  0.75511700  0.41730992  0.01890281    -0.19900
F2452       F  0.77483426  0.42891281  0.97411783    -0.22500
C2453       C  0.76895971  0.47677392  0.13364320    -0.05400
C2454       C  0.79161945  0.49112911  0.15039787     0.00600
C2455       C  0.81813155  0.49858990  0.13541903    -0.08000
C2456       C  0.82062537  0.49122309  0.10428746    -0.05400
C2457       C  0.79931987  0.47343337  0.08737536     0.00500
C2458       C  0.77136634  0.46869091  0.10288032    -0.07900
C2459       C  0.74255090  0.45477924  0.09052571     0.62500
H2460       H  0.74817672  0.47200916  0.14494834     0.13100
H2461       H  0.84003835  0.49974710  0.09340861     0.13200
C2462       C  0.84415892  0.01193078  0.15303816     0.62700
F2463       F  0.71852750  0.47435713  0.09552761    -0.22500
F2464       F  0.73745826  0.42818256  0.10564893    -0.19800
F2465       F  0.74264695  0.44874908  0.06045007    -0.19500
F2466       F  0.85207653  0.49660380  0.17807344    -0.19500
F2467       F  0.83701449  0.04120726  0.16137937    -0.19900
F2468       F  0.86969396  0.01249903  0.13573653    -0.22500
C2469       C  0.80852962  0.37985585  0.01928052    -0.05400
C2470       C  0.79345304  0.36411549  0.04156906     0.00600
C2471       C  0.78881985  0.37831732  0.06973577    -0.08000
C2472       C  0.79613953  0.40885297  0.07307605    -0.05400
C2473       C  0.80619705  0.42695675  0.04900250     0.00500
C2474       C  0.81600089  0.41060670  0.02234070    -0.07900
C2475       C  0.83534564  0.42334414  0.99726645     0.62500
H2476       H  0.81406476  0.36767222  0.99883371     0.13100
H2477       H  0.79386296  0.41827108  0.09523538     0.13200
C2478       C  0.77660075  0.36138839  0.09654708     0.62700
F2479       F  0.83559849  0.40470564  0.47200655    -0.22500
F2480       F  0.86461719  0.42678250  0.00791641    -0.19800
F2481       F  0.82355018  0.45089217  0.48662319    -0.19500
F2482       F  0.79229731  0.33436611  0.10059496    -0.19500
F2483       F  0.74632778  0.35583962  0.09137373    -0.19900
F2484       F  0.77937705  0.37759038  0.12333836    -0.22500
C2485       C  0.89640117  0.47036731  0.05620933    -0.05400
C2486       C  0.90111529  0.49163931  0.03337777     0.00600
C2487       C  0.87504320  0.00339819  0.01755348    -0.08000
C2488       C  0.84692671  0.49246863  0.02346818    -0.05400
C2489       C  0.84119918  0.47110828  0.04655445     0.00500
C2490       C  0.86768398  0.45893407  0.06269530    -0.07900
C2491       C  0.86773856  0.43217552  0.08472209     0.62500
H2492       H  0.91612822  0.46165031  0.06846937     0.13100
H2493       H  0.82831557  0.00050069  0.00956682     0.13200
C2494       C  0.87753987  0.02638111  0.99219684     0.62700
F2495       F  0.89515019  0.42858208  0.10026221    -0.22500
F2496       F  0.86298571  0.40575508  0.06883924    -0.19800
F2497       F  0.84638748  0.43543630  0.10651771    -0.19500
F2498       F  0.89760733  0.01085522  0.46915977    -0.19500
F2499       F  0.88868448  0.05302865  0.00390384    -0.19900
F2500       F  0.85002042  0.03319539  0.97796434    -0.22500
C2501       C  0.75445761  0.14170970  0.26075702    -0.05400
C2502       C  0.73767171  0.12203283  0.24306057     0.00600
C2503       C  0.71583143  0.13319190  0.22227000    -0.08000
C2504       C  0.71350558  0.16450227  0.21804663    -0.05400
C2505       C  0.72978507  0.18586163  0.23625858     0.00500
C2506       C  0.75041393  0.17322058  0.25936600    -0.07900
C2507       C  0.76843421  0.19024454  0.28357800     0.62500
H2508       H  0.77078179  0.13144634  0.27648837     0.13100
H2509       H  0.69768903  0.17280795  0.20076925     0.13200
C2510       C  0.69495765  0.11210369  0.20500506     0.62700
F2511       F  0.74936410  0.20626833  0.30140110    -0.22500
F2512       F  0.78870489  0.20871959  0.27089545    -0.19800
F2513       F  0.78510126  0.17152840  0.30310829    -0.19500
F2514       F  0.67833709  0.09619267  0.22536961    -0.19500
F2515       F  0.71164973  0.09202683  0.18790470    -0.19900
F2516       F  0.67496246  0.12757873  0.18571624    -0.22500
C2517       C  0.66847705  0.20728117  0.24300039    -0.05400
C2518       C  0.68855606  0.22884850  0.23116212     0.00600
C2519       C  0.67505852  0.25798210  0.22355434    -0.08000
C2520       C  0.64400388  0.26322373  0.22829297    -0.05400
C2521       C  0.62511338  0.24110144  0.23915422     0.00500
C2522       C  0.63742866  0.21252881  0.24643782    -0.07900
C2523       C  0.61808210  0.18790148  0.25926563     0.62500
H2524       H  0.67711178  0.18640309  0.25219520     0.13100
H2525       H  0.63414324  0.28528747  0.22324448     0.13200
C2526       C  0.69077602  0.28520492  0.21057516     0.62700
F2527       F  0.63489721  0.16247277  0.26759037    -0.22500
F2528       F  0.59677637  0.17922520  0.23763888    -0.19800
F2529       F  0.60366844  0.19848245  0.28470988    -0.19500
F2530       F  0.67552177  0.29429622  0.18425057    -0.19500
F2531       F  0.72035895  0.28045284  0.20333237    -0.19900
F2532       F  0.68966892  0.30864901  0.23130799    -0.22500
C2533       C  0.70639322  0.22750070  0.16964642    -0.05400
C2534       C  0.73027407  0.22040170  0.19100209     0.00600
C2535       C  0.75832740  0.21118040  0.17691426    -0.08000
C2536       C  0.76325104  0.22011494  0.14671984    -0.05400
C2537       C  0.74031820  0.23206494  0.12781330     0.00500
C2538       C  0.71084559  0.23376676  0.13884396    -0.07900
C2539       C  0.68383883  0.24056464  0.11780423     0.62500
H2540       H  0.68340195  0.22764499  0.17648809     0.13100
H2541       H  0.78505618  0.21646578  0.13680333     0.13200
C2542       C  0.78234253  0.18950091  0.19060156     0.62700
F2543       F  0.65669190  0.23658528  0.13182811    -0.22500
F2544       F  0.68462667  0.22134450  0.09307890    -0.19800
F2545       F  0.68450321  0.27009683  0.10805096    -0.19500
F2546       F  0.77046189  0.16130581  0.19394502    -0.19500
F2547       F  0.79364470  0.19942149  0.21785925    -0.19900
F2548       F  0.80691446  0.18571346  0.17219401    -0.22500
C2549       C  0.53939286  0.28072312  0.02047275    -0.05400
C2550       C  0.53027108  0.28541365  0.48984403     0.00600
C2551       C  0.50252915  0.27005074  0.48068366    -0.08000
C2552       C  0.98608052  0.25655687  0.00337018    -0.05400
C2553       C  0.99754816  0.25014709  0.03285562     0.00500
C2554       C  0.52795528  0.25737550  0.03810474    -0.07900
C2555       C  0.55044775  0.24054433  0.05913688     0.62500
H2556       H  0.55826590  0.29306601  0.02986327     0.13100
H2557       H  0.96378333  0.24868471  0.99725340     0.13200
C2558       C  0.98688996  0.26480003  0.45010460     0.62700
F2559       F  0.55113754  0.21028868  0.05174112    -0.22500
F2560       F  0.54429471  0.24398052  0.08906590    -0.19800
F2561       F  0.57933038  0.25107268  0.05633333    -0.19500
F2562       F  0.99933662  0.27720933  0.42541577    -0.19500
F2563       F  0.95746290  0.27584852  0.45065236    -0.19900
F2564       F  0.98585014  0.23409096  0.44474196    -0.22500
C2565       C  0.59730047  0.27297982  0.49470172    -0.05400
C2566       C  0.58775972  0.29918718  0.47806349     0.00600
C2567       C  0.61224990  0.31731567  0.46704986    -0.08000
C2568       C  0.64235089  0.31063358  0.47705522    -0.05400
C2569       C  0.65017068  0.28533936  0.49433138     0.00500
C2570       C  0.62754589  0.26558451  0.50239709    -0.07900
C2571       C  0.63639118  0.23488415  0.01742287     0.62500
H2572       H  0.58137729  0.25639301  0.50043758     0.13100
H2573       H  0.66086384  0.32405461  0.46970411     0.13200
C2574       C  0.60924076  0.34127900  0.44209979     0.62700
F2575       F  0.61159328  0.21695879  0.02088679    -0.22500
F2576       F  0.64928499  0.24031135  0.04573975    -0.19800
F2577       F  0.65588266  0.21937416  0.50258822    -0.19500
F2578       F  0.63548793  0.35727375  0.43921781    -0.19500
F2579       F  0.58708248  0.36254472  0.44739864    -0.19900
F2580       F  0.60379568  0.32730183  0.41453388    -0.22500
C2581       C  0.55409045  0.27149839  0.38939487    -0.05400
C2582       C  0.54371733  0.29579958  0.37219175     0.00600
C2583       C  0.53828718  0.32383174  0.38575335    -0.08000
C2584       C  0.54237324  0.32628758  0.41723300    -0.05400
C2585       C  0.54992946  0.30128090  0.43631118     0.00500
C2586       C  0.55702869  0.27283229  0.42114985    -0.07900
C2587       C  0.56692621  0.24285928  0.43591079     0.62500
H2588       H  0.55909061  0.25077572  0.37727983     0.13100
H2589       H  0.53946298  0.34840976  0.42649982     0.13200
C2590       C  0.52772893  0.35086923  0.36692319     0.62700
F2591       F  0.56088816  0.21854845  0.41701083    -0.22500
F2592       F  0.55199101  0.23692730  0.46191777    -0.19800
F2593       F  0.59769610  0.24262024  0.44149789    -0.19500
F2594       F  0.50054515  0.34465841  0.35229711    -0.19500
F2595       F  0.54890986  0.35702283  0.34553213    -0.19900
F2596       F  0.52362451  0.37647856  0.38448526    -0.22500
C2597       C  0.56415445  0.35506511  0.50286411    -0.05400
C2598       C  0.54364834  0.33981041  0.48281474     0.00600
C2599       C  0.51600049  0.35687943  0.47548145    -0.08000
C2600       C  0.51555518  0.38841443  0.47937214    -0.05400
C2601       C  0.53784412  0.40338386  0.49563200     0.00500
C2602       C  0.56168707  0.38635977  0.50931872    -0.07900
C2603       C  0.58435024  0.40133450  0.53054214     0.62500
H2604       H  0.58269307  0.34260018  0.51347913     0.13100
H2605       H  0.99571949  0.40133409  0.97172529     0.13200
C2606       C  0.48571503  0.34383873  0.46580322     0.62700
F2607       F  0.60703094  0.38144912  0.54030010    -0.22500
F2608       F  0.56979990  0.41230882  0.55572469    -0.19800
F2609       F  0.59752470  0.42497983  0.51589252    -0.19500
F2610       F  0.47720342  0.32304527  0.98511240    -0.19500
F2611       F  0.98692526  0.32867605  0.43941471    -0.19900
F2612       F  0.96267450  0.36439071  0.46395551    -0.22500
C2613       C  0.99394578  0.01284390  0.28417630    -0.05400
C2614       C  0.99451440  0.04410745  0.27760034     0.00600
C2615       C  0.51317567  0.05392846  0.25312040    -0.08000
C2616       C  0.52932231  0.03090379  0.23773827    -0.05400
C2617       C  0.53020808  0.49991665  0.24554009     0.00500
C2618       C  0.50963994  0.49094609  0.26882130    -0.07900
C2619       C  0.00066406  0.45892759  0.27866341     0.62500
H2620       H  0.97923850  0.50652129  0.30126321     0.13100
H2621       H  0.54402634  0.03770950  0.22018401     0.13200
C2622       C  0.51826137  0.08595685  0.24088946     0.62700
F2623       F  0.97041476  0.45871953  0.28566208    -0.22500
F2624       F  0.51737202  0.45154644  0.30563297    -0.19800
F2625       F  0.00335663  0.43608058  0.25798250    -0.19500
F2626       F  0.54341541  0.08735345  0.22309739    -0.19500
F2627       F  0.52328152  0.10683302  0.26346218    -0.19900
F2628       F  0.49447840  0.09494246  0.22222861    -0.22500
C2629       C  0.98387910  0.11705305  0.31920775    -0.05400
C2630       C  0.97364590  0.09940046  0.29397864     0.00600
C2631       C  0.96312464  0.11699760  0.26786684    -0.08000
C2632       C  0.47154603  0.14787588  0.26558302    -0.05400
C2633       C  0.98771064  0.16206548  0.28881823     0.00500
C2634       C  0.99141562  0.14767881  0.31707163    -0.07900
C2635       C  0.00352866  0.16446422  0.34481806     0.62500
H2636       H  0.98541729  0.10752423  0.34145550     0.13100
H2637       H  0.46586470  0.16103320  0.24552220     0.13200
C2638       C  0.43691197  0.10926373  0.24489307     0.62700
F2639       F  0.00808016  0.14569123  0.36958857    -0.22500
F2640       F  0.98316187  0.18691266  0.35280929    -0.19800
F2641       F  0.03083284  0.17722046  0.33852443    -0.19500
F2642       F  0.44214411  0.08147825  0.23257876    -0.19500
F2643       F  0.43481443  0.12903273  0.22065206    -0.19900
F2644       F  0.40914298  0.11000622  0.25814474    -0.22500
C2645       C  0.91616443  0.07161308  0.30642266    -0.05400
C2646       C  0.93795518  0.05545745  0.28913057     0.00600
C2647       C  0.92583437  0.03278394  0.26818363    -0.08000
C2648       C  0.89577733  0.02416101  0.27120491    -0.05400
C2649       C  0.87520574  0.04102155  0.28744314     0.00500
C2650       C  0.88506435  0.06592928  0.30447762    -0.07900
C2651       C  0.86276872  0.08642188  0.32026028     0.62500
H2652       H  0.92383864  0.08914169  0.32173202     0.13100
H2653       H  0.88701444  0.00566723  0.25755082     0.13200
C2654       C  0.93856456  0.01801075  0.23953641     0.62700
F2655       F  0.87695495  0.10877055  0.33699633    -0.22500
F2656       F  0.84601956  0.06966045  0.33965444    -0.19800
F2657       F  0.84368222  0.10010825  0.29886409    -0.19500
F2658       F  0.94138378  0.98729123  0.24392383    -0.19500
F2659       F  0.96518794  0.02846273  0.22947545    -0.20700
F2660       F  0.91810286  0.02275342  0.21555651    -0.22500
C2661       C  0.50976776  0.04817407  0.37945879    -0.05400
C2662       C  0.98720650  0.03711564  0.39634396     0.00600
C2663       C  0.96016280  0.03074865  0.38037614    -0.08000
C2664       C  0.95743174  0.03753398  0.34905295    -0.05400
C2665       C  0.97956883  0.05328257  0.33249368     0.00500
C2666       C  0.50704251  0.05647267  0.34856298    -0.07900
C2667       C  0.53633927  0.06862985  0.33721181     0.62500
H2668       H  0.53110267  0.05129493  0.39166262     0.13100
H2669       H  0.93756587  0.02931749  0.33757198     0.13200
C2670       C  0.93438211  0.01615209  0.39634206     0.62700
F2671       F  0.55896748  0.04702427  0.34147936    -0.22500
F2672       F  0.54423853  0.09386937  0.35389003    -0.19800
F2673       F  0.53527376  0.07646421  0.30748826    -0.19500
F2674       F  0.92325475  0.03584069  0.41783836    -0.19500
F2675       F  0.94454657  0.98988815  0.41040676    -0.19900
F2676       F  0.91083611  0.00896869  0.37650848    -0.22500
C2677       C  0.75273806  0.28083558  0.28742013    -0.05400
C2678       C  0.78373219  0.28292165  0.28146998     0.00600
C2679       C  0.79182381  0.27073162  0.25212346    -0.08000
C2680       C  0.76961590  0.25479362  0.23497875    -0.05400
C2681       C  0.74250964  0.24390526  0.24661721     0.00500
C2682       C  0.73371998  0.25873254  0.27451359    -0.07900
C2683       C  0.70592150  0.25257295  0.29339713     0.62500
H2684       H  0.74405918  0.29447380  0.30557563     0.13100
H2685       H  0.77444784  0.24971611  0.21192634     0.13200
C2686       C  0.82261131  0.27257186  0.23705264     0.62700
F2687       F  0.71184484  0.25852638  0.32384789    -0.22500
F2688       F  0.69748388  0.22296985  0.29239467    -0.19800
F2689       F  0.68205977  0.27114914  0.28436291    -0.19500
F2690       F  0.84278569  0.25246734  0.25059412    -0.19500
F2691       F  0.83402317  0.30108420  0.23759781    -0.19900
F2692       F  0.82114378  0.26467171  0.20663528    -0.22500
C2693       C  0.79033380  0.34721259  0.26944084    -0.05400
C2694       C  0.78901011  0.33610588  0.29949305     0.00600
C2695       C  0.77540801  0.35687490  0.32083833    -0.08000
C2696       C  0.77543740  0.38798087  0.31425825    -0.05400
C2697       C  0.78118198  0.39876245  0.28538684     0.00500
C2698       C  0.78739315  0.37791161  0.26204489    -0.07900
C2699       C  0.79253852  0.38799134  0.22969394     0.62500
H2700       H  0.79537612  0.33176846  0.25149996     0.13100
H2701       H  0.76807585  0.40409331  0.33123584     0.13200
C2702       C  0.75721567  0.34980803  0.34872367     0.62700
F2703       F  0.80361747  0.36473557  0.21191375    -0.22500
F2704       F  0.81327929  0.41086506  0.22972534    -0.19800
F2705       F  0.76563924  0.39819710  0.21641854    -0.19500
F2706       F  0.77312986  0.35814111  0.37472548    -0.19500
F2707       F  0.74873974  0.32038664  0.35089572    -0.19900
F2708       F  0.73051981  0.36660049  0.34757772    -0.22500
C2709       C  0.88751598  0.27410581  0.29791684    -0.05400
C2710       C  0.90154066  0.29877638  0.28533673     0.00600
C2711       C  0.88458954  0.32574522  0.28105121    -0.08000
C2712       C  0.85403443  0.32664114  0.28939509    -0.05400
C2713       C  0.83826535  0.30085647  0.29937350     0.00500
C2714       C  0.85686441  0.27417153  0.30529276    -0.07900
C2715       C  0.84648596  0.24536409  0.32021200     0.62500
H2716       H  0.90129336  0.25405421  0.30200505     0.13100
H2717       H  0.84272798  0.34815087  0.28779554     0.13200
C2718       C  0.89862757  0.35369897  0.26811741     0.62700
F2719       F  0.86644603  0.22131098  0.31638564    -0.22500
F2720       F  0.81962617  0.23647680  0.30764634    -0.19800
F2721       F  0.84413762  0.24973732  0.35105896    -0.19500
F2722       F  0.90640405  0.34829302  0.23843524    -0.19500
F2723       F  0.92410792  0.36104384  0.28515913    -0.19900
F2724       F  0.87901707  0.37838906  0.26812788    -0.22500
C2725       C  0.78286251  0.26759986  0.34694129    -0.05400
C2726       C  0.79995696  0.29336916  0.33957813     0.00600
C2727       C  0.81411825  0.30871864  0.36515790    -0.08000
C2728       C  0.80546484  0.30134462  0.39482954    -0.05400
C2729       C  0.78609268  0.27772732  0.40094295     0.00500
C2730       C  0.77618206  0.25933202  0.37669994    -0.07900
C2731       C  0.75945485  0.23030211  0.38217390     0.62500
H2732       H  0.77486232  0.25275104  0.32948634     0.13100
H2733       H  0.81443037  0.31382208  0.41404909     0.13200
C2734       C  0.83979306  0.33120668  0.36310594     0.62700
F2735       F  0.75762109  0.21236056  0.35670816    -0.22500
F2736       F  0.73036176  0.23696365  0.39088396    -0.19800
F2737       F  0.77451294  0.21345497  0.40437702    -0.19500
F2738       F  0.84648658  0.34473986  0.39077186    -0.19500
F2739       F  0.83295235  0.35425990  0.34321131    -0.19900
F2740       F  0.86579918  0.31632176  0.35449315    -0.22500
C2741       C  0.80106135  0.30357249  0.80551914    -0.02100
C2742       C  0.96996664  0.06366938  0.79778088    -0.02100
C2743       C  0.55311185  0.30550534  0.97119101    -0.02100
C2744       C  0.72333107  0.22031836  0.72551685    -0.02100
C2745       C  0.80614260  0.46245367  0.55308591    -0.02100
C2746       C  0.97653695  0.23120877  0.55557370    -0.02100
C2747       C  0.72127477  0.04438126  0.97925258    -0.02100
C2748       C  0.55232959  0.47884623  0.72628907    -0.02100
Zn2749     Zn  0.53788383  0.04448608  0.53614416     1.49700
Zn2750     Zn  0.53405622  0.00043585  0.97695682     1.49400
Zn2751     Zn  0.49986554  0.48456194  0.53722330     1.49100
Zn2752     Zn  0.97712038  0.04235463  0.49625483     1.49500
O2753       O  0.51217564  0.01814883  0.51074979    -1.83700
O2754       O  0.57905036  0.04614205  0.51887320    -0.74300
O2755       O  0.53996303  0.45421787  0.98071355    -0.74200
O2756       O  0.51435669  0.48931233  0.58040622    -0.73700
O2757       O  0.57639694  0.01633951  0.97765851    -0.74400
O2758       O  0.54292494  0.02979419  0.57946050    -0.74000
O2759       O  0.51696197  0.44432151  0.52328314    -0.74500
O2760       O  0.93856907  0.02360572  0.51191947    -0.73900
O2761       O  0.51406753  0.01270058  0.93647069    -0.74700
O2762       O  0.95357050  0.48281173  0.53665036    -0.74100
O2763       O  0.97426595  0.04170389  0.94947306    -0.74500
O2764       O  0.97941491  0.08693273  0.51079158    -0.74500
O2765       O  0.52122901  0.08710417  0.53852185    -0.74200
C2766       C  0.59081651  0.03363942  0.99575774     0.77500
C2767       C  0.53184659  0.43525105  0.00045174     0.78000
C2768       C  0.53119227  0.50785070  0.59457921     0.77000
C2769       C  0.93214607  0.49987416  0.52644399     0.77400
C2770       C  0.99060589  0.02940967  0.92926155     0.78500
C2771       C  0.99838147  0.10083305  0.52790025     0.77600
Zn2772     Zn  0.72927861  0.03411902  0.78213044     1.49700
Zn2773     Zn  0.74909044  0.48061125  0.73791556     1.49400
Zn2774     Zn  0.78679181  0.03792672  0.73918536     1.49100
Zn2775     Zn  0.78828128  0.99702997  0.80002286     1.49500
O2776       O  0.76352765  0.01204674  0.76534081    -1.83700
O2777       O  0.69098775  0.01701962  0.76524292    -0.74300
O2778       O  0.76660424  0.48121063  0.69637372    -0.74200
O2779       O  0.76544166  0.07786170  0.73401132    -0.73700
O2780       O  0.70392371  0.48287007  0.73153764    -0.74400
O2781       O  0.72872472  0.07680865  0.76743078    -0.74000
O2782       O  0.79374007  0.02042846  0.69676425    -0.74500
O2783       O  0.82977075  0.01495845  0.79934118    -0.73900
O2784       O  0.76010132  0.44070894  0.75625082    -0.74700
O2785       O  0.82719301  0.04569258  0.75940046    -0.74100
O2786       O  0.78894962  0.45053335  0.79708249    -0.74500
O2787       O  0.77146872  0.00927276  0.84073911    -0.74500
O2788       O  0.72916979  0.03437426  0.82882022    -0.74200
C2789       C  0.68393561  0.49896258  0.74425979     0.77500
C2790       C  0.78388909  0.49868392  0.68249924     0.78000
C2791       C  0.74356153  0.09037623  0.74756901     0.77000
C2792       C  0.84129324  0.03464694  0.78248546     0.77400
C2793       C  0.77626994  0.43186619  0.77888598     0.78500
C2794       C  0.74806912  0.02397032  0.84872586     0.77600
Zn2795     Zn  0.79771344  0.27506782  0.49904290     1.49700
Zn2796     Zn  0.73963557  0.28132398  0.54014639     1.49400
Zn2797     Zn  0.73826072  0.24212595  0.98010546     1.49100
Zn2798     Zn  0.77797376  0.21799489  0.53637441     1.49500
O2799       O  0.76299813  0.25403171  0.51377082    -1.83700
O2800       O  0.80067246  0.31663698  0.51690149    -0.74300
O2801       O  0.69646383  0.28807655  0.52332346    -0.74200
O2802       O  0.75483421  0.25752999  0.94106495    -0.73700
O2803       O  0.76009988  0.32199444  0.54476108    -0.74400
O2804       O  0.79725558  0.27967760  0.95447783    -0.74000
O2805       O  0.69619617  0.25994128  0.98292460    -0.74500
O2806       O  0.76076166  0.18081171  0.51673867    -0.73900
O2807       O  0.73683687  0.26296857  0.58203533    -0.74700
O2808       O  0.73513498  0.19639660  0.97771818    -0.74100
O2809       O  0.76357815  0.22007516  0.57972699    -0.74500
O2810       O  0.82429166  0.21317769  0.53804528    -0.74500
O2811       O  0.83546777  0.25295389  0.51063227    -0.74200
C2812       C  0.78429901  0.33242491  0.53436668     0.77500
C2813       C  0.68313624  0.27767182  0.00138116     0.78000
C2814       C  0.77837219  0.27149979  0.93403515     0.77000
C2815       C  0.74552140  0.17527811  0.99481661     0.77400
C2816       C  0.74727234  0.23883702  0.59434141     0.78500
C2817       C  0.84364678  0.23004433  0.52626116     0.77600
Zn2818     Zn  0.99114083  0.25957822  0.79770162     1.49700
Zn2819     Zn  0.55107049  0.29175987  0.77423760     1.49400
Zn2820     Zn  0.52548885  0.23464173  0.73982430     1.49100
Zn2821     Zn  0.98605239  0.29944626  0.73864321     1.49500
O2822       O  0.51415193  0.27099969  0.76239028    -1.83700
O2823       O  0.51359415  0.27447311  0.83508378    -0.74300
O2824       O  0.58832784  0.27087755  0.75946460    -0.74200
O2825       O  0.51056209  0.19730551  0.75995681    -0.73700
O2826       O  0.55468262  0.29698671  0.81923790    -0.74400
O2827       O  0.98838164  0.21433704  0.80093732    -0.74000
O2828       O  0.57111012  0.23081099  0.73479128    -0.74500
O2829       O  0.97940957  0.28049356  0.69789001    -0.73900
O2830       O  0.55136539  0.33276603  0.75704531    -0.74700
O2831       O  0.50564988  0.23611933  0.69845941    -0.74100
O2832       O  0.50727228  0.33916297  0.73260757    -0.74500
O2833       O  0.94414467  0.30572566  0.75695806    -0.74500
O2834       O  0.94848934  0.27590652  0.79696254    -0.74200
C2835       C  0.53756604  0.28903591  0.84022302     0.77500
C2836       C  0.59292320  0.24711487  0.74396320     0.78000
C2837       C  0.99702521  0.19298448  0.78373958     0.77000
C2838       C  0.98841470  0.25616724  0.68533276     0.77400
C2839       C  0.53289798  0.34892106  0.74138874     0.78500
C2840       C  0.93269848  0.29370392  0.78006405     0.77600
C2841       C  0.60737121  0.47020127  0.71520659    -0.05400
C2842       C  0.58664758  0.48649903  0.73373301     0.00600
C2843       C  0.60003417  0.50793587  0.75502331    -0.08000
C2844       C  0.63065461  0.01261366  0.75318672    -0.05400
C2845       C  0.65103057  0.49498806  0.73716653     0.00500
C2846       C  0.63883855  0.47362142  0.71661902    -0.07900
C2847       C  0.65830802  0.45495691  0.69541949     0.62500
H2848       H  0.59830656  0.45449468  0.69871428     0.13100
H2849       H  0.64010883  0.03073963  0.76672699     0.13200
C2850       C  0.58574305  0.02774310  0.77930324     0.62700
F2851       F  0.64121857  0.43772069  0.67540822    -0.22500
F2852       F  0.67695275  0.43544638  0.71204454    -0.19800
F2853       F  0.67548601  0.47382964  0.67833394    -0.19500
F2854       F  0.55949198  0.51820005  0.79154160    -0.19500
F2855       F  0.58317800  0.05721489  0.76940121    -0.19900
F2856       F  0.60493632  0.02727733  0.80471426    -0.22500
C2857       C  0.55433731  0.39630542  0.75954003    -0.05400
C2858       C  0.54114932  0.38034650  0.73549327     0.00600
C2859       C  0.53861000  0.39390723  0.70681098    -0.08000
C2860       C  0.54426482  0.42486889  0.70465464    -0.05400
C2861       C  0.55164653  0.44331660  0.73025259     0.00500
C2862       C  0.56157567  0.42694997  0.75729765    -0.07900
C2863       C  0.58044198  0.43955815  0.78373142     0.62500
H2864       H  0.55878729  0.38423286  0.78052002     0.13100
H2865       H  0.54358082  0.43412384  0.68224308     0.13200
C2866       C  0.03346968  0.37500466  0.67751944     0.62700
F2867       F  0.58308413  0.41983555  0.80796845    -0.22500
F2868       F  0.56763496  0.46536964  0.79470426    -0.19800
F2869       F  0.60937296  0.44493121  0.77479577    -0.19500
F2870       F  0.00457626  0.36396982  0.67712949    -0.19500
F2871       F  0.55154324  0.35087502  0.67735825    -0.19900
F2872       F  0.03678056  0.39139570  0.65121904    -0.22500
C2873       C  0.51389150  0.48999843  0.64366019    -0.05400
C2874       C  0.53665814  0.50353248  0.62781613     0.00600
C2875       C  0.56298483  0.51218143  0.64400942    -0.08000
C2876       C  0.56559302  0.50587019  0.67531076    -0.05400
C2877       C  0.54436844  0.48866888  0.69151216     0.00500
C2878       C  0.51641985  0.48308804  0.67470801    -0.07900
C2879       C  0.98824268  0.46818854  0.68508139     0.62500
H2880       H  0.99313021  0.48335688  0.63040312     0.13100
H2881       H  0.58463763  0.51546471  0.68718152     0.13200
C2882       C  0.58880741  0.52731301  0.62844229     0.62700
F2883       F  0.96360318  0.48708519  0.67902985    -0.22500
F2884       F  0.48890010  0.46314880  0.71590344    -0.19800
F2885       F  0.98362927  0.44108638  0.67017382    -0.19500
F2886       F  0.57788939  0.05723101  0.61812750    -0.19500
F2887       F  0.59779398  0.50999111  0.60402962    -0.19900
F2888       F  0.61372693  0.53072434  0.64769155    -0.22500
C2889       C  0.72725741  0.12723203  0.01363287    -0.05400
C2890       C  0.73699913  0.14348938  0.98898491     0.00600
C2891       C  0.73781867  0.12929889  0.96042544    -0.08000
C2892       C  0.73095673  0.09844550  0.95826177    -0.05400
C2893       C  0.72481140  0.08006535  0.98383261     0.00500
C2894       C  0.71934927  0.09662369  0.01166893    -0.07900
C2895       C  0.70398350  0.08435860  0.03944980     0.62500
H2896       H  0.72501788  0.13953315  0.03471260     0.13100
H2897       H  0.72972316  0.08920021  0.93575086     0.13200
C2898       C  0.74663705  0.14638652  0.93237250     0.62700
F2899       F  0.70460810  0.10427539  0.06372316    -0.22500
F2900       F  0.71820872  0.05861262  0.04958940    -0.19800
F2901       F  0.67396677  0.07926055  0.03274699    -0.19500
F2902       F  0.77415414  0.15978950  0.43673195    -0.19500
F2903       F  0.72482848  0.16813194  0.92526366    -0.19900
F2904       F  0.74954926  0.12762629  0.90742441    -0.22500
C2905       C  0.71337068  0.02186828  0.89167941    -0.05400
C2906       C  0.74215036  0.02811758  0.88176881     0.00600
C2907       C  0.76458357  0.03606421  0.90368727    -0.08000
C2908       C  0.75656179  0.03957647  0.93425023    -0.05400
C2909       C  0.72706520  0.03471093  0.94470963     0.00500
C2910       C  0.70650966  0.02094649  0.92273818    -0.07900
C2911       C  0.67987807  0.00060967  0.92874017     0.62500
H2912       H  0.69684132  0.01417379  0.87491199     0.13100
H2913       H  0.77347180  0.04709896  0.95042527     0.13200
C2914       C  0.79662211  0.04228213  0.89479363     0.62700
F2915       F  0.68121276  0.97548866  0.90999970    -0.22500
F2916       F  0.65304430  0.01584092  0.92206809    -0.19800
F2917       F  0.67961784  0.98920684  0.95753417    -0.19500
F2918       F  0.79608776  0.06283718  0.87134163    -0.19500
F2919       F  0.81066147  0.01579111  0.88568844    -0.19900
F2920       F  0.81367029  0.05415176  0.91859099    -0.22500
C2921       C  0.66675510  0.05776228  0.96925569    -0.05400
C2922       C  0.68729216  0.03936336  0.98702687     0.00600
C2923       C  0.67412071  0.02060086  0.50909297    -0.08000
C2924       C  0.64239840  0.02072712  0.51063284    -0.05400
C2925       C  0.62326929  0.03716723  0.99213425     0.00500
C2926       C  0.63535668  0.05747944  0.97189736    -0.07900
C2927       C  0.61508879  0.07812583  0.95255984     0.62500
H2928       H  0.67557538  0.07220671  0.95209654     0.13100
H2929       H  0.63137790  0.00601180  0.52622456     0.13200
C2930       C  0.68935374  0.99714711  0.53037837     0.62700
F2931       F  0.63145187  0.09907485  0.93710061    -0.22500
F2932       F  0.59513137  0.09371668  0.97069282    -0.19800
F2933       F  0.59898133  0.06114218  0.93160087    -0.19500
F2934       F  0.71609050  0.00592613  0.54345237    -0.19500
F2935       F  0.69340394  0.97045994  0.51483373    -0.19900
F2936       F  0.67145190  0.99086392  0.55471746    -0.22500
C2937       C  0.49445016  0.27216526  0.63340200    -0.05400
C2938       C  0.98142073  0.25197502  0.65307574     0.00600
C2939       C  0.96210696  0.22992966  0.64130025    -0.08000
C2940       C  0.95987148  0.22624547  0.60957449    -0.05400
C2941       C  0.97680737  0.24356542  0.58916922     0.00500
C2942       C  0.49065107  0.27072553  0.60182880    -0.07900
C2943       C  0.50082206  0.30055177  0.58777282     0.62500
H2944       H  0.50721737  0.29042891  0.64365091     0.13100
H2945       H  0.94667965  0.20781339  0.60067194     0.13200
C2946       C  0.94502251  0.20983424  0.66227884     0.62700
F2947       F  0.48685449  0.32445845  0.60253703    -0.22500
F2948       F  0.49394759  0.30467913  0.55782926    -0.19800
F2949       F  0.53157957  0.30381307  0.59216621    -0.19500
F2950       F  0.92769155  0.22743861  0.68129388    -0.19500
F2951       F  0.96516149  0.19251294  0.67965946    -0.19900
F2952       F  0.92606649  0.19065308  0.64634081    -0.22500
C2953       C  0.92591716  0.20355907  0.53983953    -0.05400
C2954       C  0.94082786  0.23156017  0.54611819     0.00600
C2955       C  0.92056530  0.25781584  0.54689455    -0.08000
C2956       C  0.88942302  0.25411822  0.54282482    -0.05400
C2957       C  0.87639032  0.22729218  0.53408767     0.00500
C2958       C  0.89480279  0.20132235  0.53207277    -0.07900
C2959       C  0.88190084  0.17165991  0.52109605     0.62500
H2960       H  0.93793849  0.18241045  0.54163521     0.13100
H2961       H  0.87402437  0.27304254  0.54596581     0.13200
C2962       C  0.92908880  0.29052587  0.55164773     0.62700
F2963       F  0.90378763  0.14900527  0.51980635    -0.22500
F2964       F  0.86930726  0.17538215  0.49226499    -0.19800
F2965       F  0.85992660  0.16244198  0.54038671    -0.19500
F2966       F  0.94904541  0.29848578  0.53030842    -0.19500
F2967       F  0.93979440  0.29492757  0.58071378    -0.19900
F2968       F  0.90508105  0.31081233  0.54784965    -0.22500
C2969       C  0.98939941  0.18641114  0.52054120    -0.05400
C2970       C  0.98954487  0.19713340  0.55128789     0.00600
C2971       C  0.99736496  0.17403709  0.57368558    -0.08000
C2972       C  0.99697338  0.14323421  0.56485764    -0.05400
C2973       C  0.99438710  0.13371992  0.53470006     0.00500
C2974       C  0.99228506  0.15582259  0.51200200    -0.07900
C2975       C  0.99036731  0.14662626  0.97819736     0.62500
H2976       H  0.98419573  0.20170286  0.50238136     0.13100
H2977       H  0.00059170  0.12591306  0.58197361     0.13200
C2978       C  0.00915434  0.17752545  0.60627558     0.62700
F2979       F  0.99090062  0.17147758  0.95937921    -0.22500
F2980       F  0.96403948  0.13140620  0.97184502    -0.19800
F2981       F  0.50873958  0.12857312  0.96920260    -0.19500
F2982       F  0.98781325  0.16741794  0.62583405    -0.19500
F2983       F  0.01723036  0.20599691  0.61429464    -0.19900
F2984       F  0.03500899  0.15980022  0.61055360    -0.22500
C2985       C  0.78310371  0.01255889  0.53724578    -0.05400
C2986       C  0.78252363  0.48090692  0.53143774     0.00600
C2987       C  0.76191704  0.47125879  0.50695800    -0.08000
C2988       C  0.74562276  0.99328290  0.49128281    -0.05400
C2989       C  0.74552966  0.02447289  0.99791346     0.00500
C2990       C  0.76883063  0.03430252  0.51819057    -0.07900
C2991       C  0.78416533  0.06463434  0.02030238     0.62500
H2992       H  0.79792476  0.02101559  0.55506089     0.13100
H2993       H  0.73090149  0.98595935  0.47311713     0.13200
C2994       C  0.75487785  0.43892979  0.49548712     0.62700
F2995       F  0.81470435  0.06118102  0.02730852    -0.22500
F2996       F  0.77201569  0.08206389  0.04305094    -0.19800
F2997       F  0.78284068  0.07980305  0.99318418    -0.19500
F2998       F  0.72637601  0.43751121  0.48194294    -0.19500
F2999       F  0.75460056  0.41752125  0.51776719    -0.19900
F3000       F  0.77444232  0.43013269  0.47332297    -0.22500
C3001       C  0.76715847  0.47806626  0.63287792    -0.05400
C3002       C  0.79000774  0.49190266  0.64986221     0.00600
C3003       C  0.81708126  0.49812818  0.63536922    -0.08000
C3004       C  0.81964994  0.49093966  0.60424699    -0.05400
C3005       C  0.79820118  0.47351211  0.58713090     0.00500
C3006       C  0.77000358  0.46918190  0.60235641    -0.07900
C3007       C  0.74142472  0.45479308  0.58998496     0.62500
H3008       H  0.74608755  0.47396283  0.64393424     0.13100
H3009       H  0.83939596  0.49907921  0.59368155     0.13200
C3010       C  0.84328267  0.01117613  0.65381117     0.62700
F3011       F  0.71717311  0.47427368  0.59422965    -0.22500
F3012       F  0.73636749  0.42853903  0.60571815    -0.19800
F3013       F  0.74194730  0.44798283  0.56006685    -0.19500
F3014       F  0.85004469  0.49343313  0.67854886    -0.19500
F3015       F  0.83646070  0.04034148  0.66275382    -0.19900
F3016       F  0.86882968  0.01182081  0.63652565    -0.22500
C3017       C  0.80801838  0.37991714  0.51901606    -0.05400
C3018       C  0.79329727  0.36396442  0.54137078     0.00600
C3019       C  0.78884856  0.37803987  0.56962754    -0.08000
C3020       C  0.79529275  0.40883297  0.57279682    -0.05400
C3021       C  0.80525222  0.42704929  0.54873007     0.00500
C3022       C  0.81523353  0.41073946  0.52210241    -0.07900
C3023       C  0.83455515  0.42356062  0.49707951     0.62500
H3024       H  0.81356830  0.36780043  0.49853182     0.13100
H3025       H  0.79248948  0.41834361  0.59485983     0.13200
C3026       C  0.77812557  0.36059613  0.59679656     0.62700
F3027       F  0.83678287  0.40421096  0.97243464    -0.22500
F3028       F  0.86391445  0.42654392  0.50764297    -0.19800
F3029       F  0.82405688  0.45043450  0.98642723    -0.19500
F3030       F  0.79456870  0.33389577  0.59997876    -0.19500
F3031       F  0.74786885  0.35434403  0.59284283    -0.19900
F3032       F  0.78169330  0.37665841  0.62359979    -0.22500
C3033       C  0.89547054  0.47000904  0.55533317    -0.05400
C3034       C  0.90012479  0.49171135  0.53288167     0.00600
C3035       C  0.87529659  0.00300248  0.51677248    -0.08000
C3036       C  0.84584553  0.49304386  0.52353336    -0.05400
C3037       C  0.84016319  0.47135521  0.54633975     0.00500
C3038       C  0.86668489  0.45901565  0.56227936    -0.07900
C3039       C  0.86676287  0.43245755  0.58454429     0.62500
H3040       H  0.91525145  0.46072106  0.56707314     0.13100
H3041       H  0.82844855  0.00090330  0.50939626     0.13200
C3042       C  0.87817004  0.02383671  0.48964165     0.62700
F3043       F  0.89379155  0.42986520  0.60094172    -0.22500
F3044       F  0.86312861  0.40579403  0.56875230    -0.19800
F3045       F  0.84475660  0.43522879  0.60570372    -0.19500
F3046       F  0.89643448  0.01507046  0.97033580    -0.19500
F3047       F  0.88889939  0.05142439  0.49923769    -0.19900
F3048       F  0.85089230  0.02923752  0.47436233    -0.22500
C3049       C  0.75332697  0.14222883  0.76100993    -0.05400
C3050       C  0.73747298  0.12249517  0.74247567     0.00600
C3051       C  0.71728197  0.13351454  0.72007557    -0.08000
C3052       C  0.71482011  0.16478287  0.71599717    -0.05400
C3053       C  0.73029179  0.18625318  0.73481456     0.00500
C3054       C  0.75021486  0.17379320  0.75863449    -0.07900
C3055       C  0.76862498  0.19103187  0.78245152     0.62500
H3056       H  0.76840210  0.13195294  0.77791927     0.13100
H3057       H  0.69955444  0.17293329  0.69818788     0.13200
C3058       C  0.69832075  0.11224937  0.70082699     0.62700
F3059       F  0.75000304  0.20723831  0.80061595    -0.22500
F3060       F  0.78862419  0.20941087  0.76925084    -0.19800
F3061       F  0.78574050  0.17246485  0.80174250    -0.19500
F3062       F  0.68099958  0.09500584  0.71941229    -0.19500
F3063       F  0.71690569  0.09340939  0.68430727    -0.19900
F3064       F  0.67904552  0.12761850  0.68074312    -0.22500
C3065       C  0.66869829  0.20612374  0.74111018    -0.05400
C3066       C  0.68829239  0.22818262  0.72930302     0.00600
C3067       C  0.67400923  0.25676083  0.72101494    -0.08000
C3068       C  0.64280961  0.26118753  0.72545586    -0.05400
C3069       C  0.62453112  0.23881189  0.73684631     0.00500
C3070       C  0.63748573  0.21053248  0.74420647    -0.07900
C3071       C  0.61865853  0.18534753  0.75672001     0.62500
H3072       H  0.67779522  0.18549916  0.75049001     0.13100
H3073       H  0.63238582  0.28291488  0.72001159     0.13200
C3074       C  0.68896342  0.28416185  0.70753053     0.62700
F3075       F  0.63590201  0.15993053  0.76416623    -0.22500
F3076       F  0.59715531  0.17689528  0.73519281    -0.19800
F3077       F  0.60451039  0.19514761  0.78260466    -0.19500
F3078       F  0.67429740  0.29150176  0.68034774    -0.19500
F3079       F  0.71901193  0.28051291  0.70166108    -0.19900
F3080       F  0.68599893  0.30833102  0.72720096    -0.22500
C3081       C  0.70666674  0.22673751  0.66810448    -0.05400
C3082       C  0.73069861  0.22091378  0.68967832     0.00600
C3083       C  0.75917553  0.21271042  0.67584485    -0.08000
C3084       C  0.76385268  0.22161040  0.64559080    -0.05400
C3085       C  0.74049243  0.23230859  0.62646526     0.00500
C3086       C  0.71097044  0.23290441  0.63730189    -0.07900
C3087       C  0.68383283  0.23844635  0.61606203     0.62500
H3088       H  0.68365945  0.22572520  0.67475094     0.13100
H3089       H  0.78582869  0.21886054  0.63579246     0.13200
C3090       C  0.78395199  0.19202996  0.68978739     0.62700
F3091       F  0.65679430  0.23393707  0.63011231    -0.22500
F3092       F  0.68528693  0.21877210  0.59172780    -0.19800
F3093       F  0.68360323  0.26780372  0.60569881    -0.19500
F3094       F  0.77296179  0.16364184  0.69431400    -0.19500
F3095       F  0.79549262  0.20308222  0.71646414    -0.19900
F3096       F  0.80825847  0.18828250  0.67101915    -0.22500
C3097       C  0.53839709  0.28223617  0.52094875    -0.05400
C3098       C  0.53120413  0.28435788  0.98942622     0.00600
C3099       C  0.50326317  0.26936548  0.98027974    -0.08000
C3100       C  0.98513055  0.25685095  0.50431595    -0.05400
C3101       C  0.99632632  0.25038735  0.53386305     0.00500
C3102       C  0.52723915  0.25892378  0.53888553    -0.07900
C3103       C  0.54987596  0.24322225  0.56069311     0.62500
H3104       H  0.55719171  0.29488141  0.53007935     0.13100
H3105       H  0.96296611  0.24880288  0.49795669     0.13200
C3106       C  0.98718972  0.26503126  0.94915721     0.62700
F3107       F  0.55114510  0.21273544  0.55445225    -0.22500
F3108       F  0.54356011  0.24765163  0.59048064    -0.19800
F3109       F  0.57859669  0.25410262  0.55765220    -0.19500
F3110       F  0.99968286  0.27730611  0.92442035    -0.19500
F3111       F  0.95795941  0.27656169  0.95005007    -0.19900
F3112       F  0.98555900  0.23437824  0.94366112    -0.22500
C3113       C  0.59811083  0.27231382  0.99447660    -0.05400
C3114       C  0.58857656  0.29893222  0.97853317     0.00600
C3115       C  0.61305227  0.31774322  0.96871699    -0.08000
C3116       C  0.64298661  0.31125622  0.97939874    -0.05400
C3117       C  0.65078586  0.28528207  0.99565862     0.00500
C3118       C  0.62827523  0.26485821  0.00228841    -0.07900
C3119       C  0.63566869  0.23644080  0.51905749     0.62500
H3120       H  0.58226497  0.25535112  0.99927622     0.13100
H3121       H  0.66146719  0.32526379  0.97309363     0.13200
C3122       C  0.61036521  0.34210991  0.94415598     0.62700
F3123       F  0.61085377  0.21882028  0.52358619    -0.22500
F3124       F  0.64867369  0.24333142  0.54699762    -0.19800
F3125       F  0.65666596  0.21873776  0.00017038    -0.19500
F3126       F  0.63648190  0.35849791  0.94226071    -0.19500
F3127       F  0.58778694  0.36299403  0.94918096    -0.19900
F3128       F  0.60582150  0.32850830  0.91625380    -0.22500
C3129       C  0.55593955  0.27087227  0.88903277    -0.05400
C3130       C  0.54597736  0.29525343  0.87175678     0.00600
C3131       C  0.54110923  0.32341150  0.88527160    -0.08000
C3132       C  0.54456374  0.32572170  0.91685367    -0.05400
C3133       C  0.55153363  0.30061254  0.93599793     0.00500
C3134       C  0.55884401  0.27220834  0.92079762    -0.07900
C3135       C  0.56879612  0.24225651  0.93554186     0.62500
H3136       H  0.56067228  0.25010295  0.87690203     0.13100
H3137       H  0.54166291  0.34782769  0.92616527     0.13200
C3138       C  0.53195811  0.35076675  0.86625916     0.62700
F3139       F  0.56396444  0.21795202  0.91629155    -0.22500
F3140       F  0.55297138  0.23588672  0.96090309    -0.19800
F3141       F  0.59938434  0.24249166  0.94208722    -0.19500
F3142       F  0.50473628  0.34567626  0.85122158    -0.19500
F3143       F  0.55374925  0.35591981  0.84520384    -0.19900
F3144       F  0.52871320  0.37657422  0.88371192    -0.22500
C3145       C  0.56338843  0.35404009  0.00370478    -0.05400
C3146       C  0.54382294  0.33891740  0.98261528     0.00600
C3147       C  0.51641529  0.35596074  0.97433384    -0.08000
C3148       C  0.51581365  0.38750872  0.97826051    -0.05400
C3149       C  0.53740559  0.40243038  0.99554585     0.00500
C3150       C  0.56057817  0.38530096  0.01026956    -0.07900
C3151       C  0.58237071  0.40021424  0.03245321     0.62500
H3152       H  0.58156571  0.34153000  0.01490209     0.13100
H3153       H  0.99590114  0.40133581  0.47166584     0.13200
C3154       C  0.48643447  0.34285340  0.96377275     0.62700
F3155       F  0.60393854  0.38002584  0.04399586    -0.22500
F3156       F  0.56665845  0.41220527  0.05644790    -0.19800
F3157       F  0.59700896  0.42310945  0.01807248    -0.19500
F3158       F  0.47716004  0.32391211  0.48732317    -0.19500
F3159       F  0.98717793  0.32912892  0.93792531    -0.19900
F3160       F  0.96274897  0.36435577  0.96298331    -0.22500
C3161       C  0.99152280  0.01276648  0.78432881    -0.05400
C3162       C  0.99229257  0.04405329  0.77790012     0.00600
C3163       C  0.51332714  0.05273504  0.75401447    -0.08000
C3164       C  0.52924798  0.02970283  0.73844963    -0.05400
C3165       C  0.52955406  0.49813145  0.74583329     0.00500
C3166       C  0.50863767  0.48939221  0.76888259    -0.07900
C3167       C  0.00032282  0.45700927  0.77876096     0.62500
H3168       H  0.97864858  0.50464129  0.80126814     0.13100
H3169       H  0.54439418  0.03652952  0.72129011     0.13200
C3170       C  0.51951383  0.08485920  0.74255097     0.62700
F3171       F  0.97011373  0.45661038  0.78589293    -0.22500
F3172       F  0.51492432  0.45052861  0.80638341    -0.19800
F3173       F  0.00312916  0.43412498  0.75816064    -0.19500
F3174       F  0.54592587  0.08597926  0.72661777    -0.19500
F3175       F  0.52333487  0.10568803  0.76536480    -0.19900
F3176       F  0.49696608  0.09426291  0.72253304    -0.22500
C3177       C  0.98310663  0.11673701  0.81982878    -0.05400
C3178       C  0.97223625  0.09947328  0.79457695     0.00600
C3179       C  0.96185357  0.11743408  0.76865421    -0.08000
C3180       C  0.47190405  0.14651128  0.76615954    -0.05400
C3181       C  0.98767074  0.16173975  0.78962525     0.00500
C3182       C  0.99138431  0.14715871  0.81777429    -0.07900
C3183       C  0.00431912  0.16347311  0.84544899     0.62500
H3184       H  0.98465478  0.10706324  0.84200923     0.13100
H3185       H  0.46702689  0.15949425  0.74580759     0.13200
C3186       C  0.43801759  0.10769764  0.74451133     0.62700
F3187       F  0.00849547  0.14452456  0.87013788    -0.22500
F3188       F  0.98479774  0.18654871  0.85373473    -0.19800
F3189       F  0.03197095  0.17532235  0.83888524    -0.19500
F3190       F  0.44439236  0.08029832  0.73187783    -0.19500
F3191       F  0.43579225  0.12790126  0.72064429    -0.19900
F3192       F  0.40997283  0.10734046  0.75715765    -0.22500
C3193       C  0.91410831  0.07287749  0.80610993    -0.05400
C3194       C  0.93586253  0.05616158  0.78927050     0.00600
C3195       C  0.92368751  0.03339353  0.76852332    -0.08000
C3196       C  0.89366772  0.02487399  0.77172786    -0.05400
C3197       C  0.87311796  0.04227970  0.78744849     0.00500
C3198       C  0.88294784  0.06763320  0.80378615    -0.07900
C3199       C  0.86060262  0.08904275  0.81835280     0.62500
H3200       H  0.92181680  0.09052983  0.82125458     0.13100
H3201       H  0.88490675  0.00614742  0.75840830     0.13200
C3202       C  0.93630743  0.01872080  0.73977515     0.62700
F3203       F  0.87477790  0.11227692  0.83377712    -0.22500
F3204       F  0.84374690  0.07347267  0.83863796    -0.19800
F3205       F  0.84157921  0.10157874  0.79619192    -0.19500
F3206       F  0.93951814  0.98803282  0.74410739    -0.19500
F3207       F  0.96272001  0.02954427  0.72952332    -0.20700
F3208       F  0.91560393  0.02322435  0.71595713    -0.22500
C3209       C  0.50897286  0.04725269  0.87991864    -0.05400
C3210       C  0.98467640  0.03624543  0.89641016     0.00600
C3211       C  0.95723665  0.03102015  0.88067118    -0.08000
C3212       C  0.95453166  0.03804970  0.84937985    -0.05400
C3213       C  0.97715726  0.05308361  0.83277226     0.00500
C3214       C  0.50642857  0.05534869  0.84901004    -0.07900
C3215       C  0.53571544  0.06772475  0.83797861     0.62500
H3216       H  0.53012587  0.05077472  0.89233473     0.13100
H3217       H  0.93424983  0.03068620  0.83803535     0.13200
C3218       C  0.93098072  0.01753741  0.89684966     0.62700
F3219       F  0.55865575  0.04658658  0.84305496    -0.22500
F3220       F  0.54283062  0.09350478  0.85417439    -0.19800
F3221       F  0.53505620  0.07473677  0.80814139    -0.19500
F3222       F  0.92089872  0.03767757  0.91845591    -0.19500
F3223       F  0.94012590  0.99088779  0.91082015    -0.19900
F3224       F  0.90695796  0.01138694  0.87721393    -0.22500
C3225       C  0.75108227  0.28085377  0.78708754    -0.05400
C3226       C  0.78216822  0.28325578  0.78161573     0.00600
C3227       C  0.79066178  0.27157883  0.75216810    -0.08000
C3228       C  0.76857288  0.25624466  0.73425043    -0.05400
C3229       C  0.74165199  0.24458694  0.74551304     0.00500
C3230       C  0.73238752  0.25879410  0.77353073    -0.07900
C3231       C  0.70428853  0.25195445  0.79169014     0.62500
H3232       H  0.74202968  0.29424697  0.80518486     0.13100
H3233       H  0.77336819  0.25218947  0.71106203     0.13200
C3234       C  0.82185836  0.27300813  0.73785679     0.62700
F3235       F  0.70879489  0.25896338  0.82211737    -0.22500
F3236       F  0.69734419  0.22190371  0.79112124    -0.19800
F3237       F  0.67992358  0.26918600  0.78140786    -0.19500
F3238       F  0.84146382  0.25274052  0.75197058    -0.19500
F3239       F  0.83361767  0.30137079  0.73856299    -0.19900
F3240       F  0.82107313  0.26492995  0.70748480    -0.22500
C3241       C  0.78909243  0.34740829  0.76919526    -0.05400
C3242       C  0.78713540  0.33654081  0.79927615     0.00600
C3243       C  0.77283173  0.35738973  0.82006888    -0.08000
C3244       C  0.77303068  0.38845198  0.81331486    -0.05400
C3245       C  0.77952062  0.39905804  0.78454980     0.00500
C3246       C  0.78599541  0.37801657  0.76144597    -0.07900
C3247       C  0.79116730  0.38773386  0.72898409     0.62500
H3248       H  0.79458693  0.33187616  0.75155171     0.13100
H3249       H  0.76527925  0.40466168  0.83001278     0.13200
C3250       C  0.75400851  0.35047104  0.84756333     0.62700
F3251       F  0.80142038  0.36408264  0.71121371    -0.22500
F3252       F  0.81253296  0.41000223  0.72875757    -0.19800
F3253       F  0.76446102  0.39858449  0.71582478    -0.19500
F3254       F  0.76928202  0.35906188  0.87385333    -0.19500
F3255       F  0.74562373  0.32103900  0.84981631    -0.19900
F3256       F  0.72725394  0.36713788  0.84563096    -0.22500
C3257       C  0.88564465  0.27395840  0.79992073    -0.05400
C3258       C  0.90001894  0.29830742  0.78707377     0.00600
C3259       C  0.88334020  0.32548114  0.78274510    -0.08000
C3260       C  0.85262478  0.32671978  0.79066441    -0.05400
C3261       C  0.83646354  0.30112837  0.80043753     0.00500
C3262       C  0.85479111  0.27434592  0.80679231    -0.07900
C3263       C  0.84373641  0.24558701  0.82127558     0.62500
H3264       H  0.89920283  0.25383478  0.80438961     0.13100
H3265       H  0.84139997  0.34825204  0.78861238     0.13200
C3266       C  0.89778536  0.35326556  0.76996240     0.62700
F3267       F  0.86329892  0.22125380  0.81723646    -0.22500
F3268       F  0.81677873  0.23728525  0.80845326    -0.19800
F3269       F  0.84120040  0.24969055  0.85214127    -0.19500
F3270       F  0.90448002  0.34817971  0.73993646    -0.19500
F3271       F  0.92397326  0.35958720  0.78634152    -0.19900
F3272       F  0.87892267  0.37847519  0.77112708    -0.22500
C3273       C  0.78016078  0.26881067  0.84752721    -0.05400
C3274       C  0.79749647  0.29437419  0.84006299     0.00600
C3275       C  0.81147454  0.30997700  0.86561452    -0.08000
C3276       C  0.80339790  0.30218062  0.89535870    -0.05400
C3277       C  0.78427214  0.27840140  0.90162226     0.00500
C3278       C  0.77337856  0.26062060  0.87729026    -0.07900
C3279       C  0.75536344  0.23233370  0.88260484     0.62500
H3280       H  0.77208780  0.25399347  0.83012695     0.13100
H3281       H  0.81271695  0.31442655  0.91456476     0.13200
C3282       C  0.83662389  0.33308072  0.86354526     0.62700
F3283       F  0.75097168  0.21554813  0.85659848    -0.22500
F3284       F  0.72719473  0.24017181  0.89313923    -0.19800
F3285       F  0.77064019  0.21392360  0.90336423    -0.19500
F3286       F  0.84250921  0.34727256  0.89105315    -0.19500
F3287       F  0.82961785  0.35568639  0.84320604    -0.19900
F3288       F  0.86310100  0.31866815  0.85557481    -0.22500
C3289       C  0.80372844  0.80256347  0.30543075    -0.02100
C3290       C  0.97176613  0.56388503  0.29753931    -0.02100
C3291       C  0.55296264  0.80577424  0.47040747    -0.02100
C3292       C  0.72337560  0.72037037  0.22726613    -0.02100
C3293       C  0.80684056  0.96200187  0.05390843    -0.02100
C3294       C  0.97628934  0.73163847  0.05421359    -0.02100
C3295       C  0.72085235  0.54507429  0.47842183    -0.02100
C3296       C  0.55280328  0.98053942  0.22528193    -0.02100
Zn3297     Zn  0.53789059  0.54420501  0.03682029     1.49700
Zn3298     Zn  0.53488633  0.50140013  0.47792666     1.49400
Zn3299     Zn  0.49927638  0.98500625  0.03667549     1.49100
Zn3300     Zn  0.97715236  0.54205947  0.99592803     1.49500
O3301       O  0.51230238  0.51780106  0.01161646    -1.83700
O3302       O  0.57937070  0.54558947  0.02012338    -0.74300
O3303       O  0.53940498  0.95461707  0.47929575    -0.74200
O3304       O  0.51468377  0.99024680  0.07952090    -0.73700
O3305       O  0.57645438  0.51838716  0.47848121    -0.74400
O3306       O  0.54184443  0.52969499  0.07999117    -0.74000
O3307       O  0.51510441  0.94409988  0.02291064    -0.74500
O3308       O  0.93882026  0.52317419  0.01150688    -0.73900
O3309       O  0.51526837  0.51375931  0.43740607    -0.74700
O3310       O  0.95391952  0.98236892  0.03686899    -0.74100
O3311       O  0.97506951  0.54186247  0.44886916    -0.74500
O3312       O  0.97884053  0.58669732  0.01020612    -0.74500
O3313       O  0.52160704  0.58691992  0.03900747    -0.74200
C3314       C  0.59080099  0.53530463  0.49694032     0.77500
C3315       C  0.53136518  0.93561049  0.49904360     0.78000
C3316       C  0.53172423  0.00884307  0.09338547     0.77000
C3317       C  0.93258064  0.99990526  0.02731977     0.77400
C3318       C  0.99208980  0.52994012  0.42902416     0.78500
C3319       C  0.99768075  0.60091590  0.02716961     0.77600
Zn3320     Zn  0.73075109  0.53401221  0.28170305     1.49700
Zn3321     Zn  0.75029768  0.97910864  0.23861888     1.49400
Zn3322     Zn  0.78860848  0.53821642  0.23909727     1.49100
Zn3323     Zn  0.78937824  0.49642036  0.29958728     1.49500
O3324       O  0.76506480  0.51212503  0.26486378    -1.83700
O3325       O  0.69248119  0.51722482  0.26499218    -0.74300
O3326       O  0.76775768  0.97994360  0.19711422    -0.74200
O3327       O  0.76734762  0.57844524  0.23463257    -0.73700
O3328       O  0.70501151  0.98103261  0.23230005    -0.74400
O3329       O  0.72975416  0.57643810  0.26698291    -0.74000
O3330       O  0.79554715  0.52128499  0.19628863    -0.74500
O3331       O  0.83146101  0.51353949  0.29896359    -0.73900
O3332       O  0.76193966  0.93939926  0.25690249    -0.74700
O3333       O  0.82913035  0.54498183  0.25954125    -0.74100
O3334       O  0.79156840  0.94967620  0.29709365    -0.74500
O3335       O  0.77249535  0.50909042  0.34041885    -0.74500
O3336       O  0.73051979  0.53460106  0.32821990    -0.74200
C3337       C  0.68502911  0.99664260  0.24560673     0.77500
C3338       C  0.78481984  0.99763732  0.18323631     0.78000
C3339       C  0.74488173  0.59045280  0.24772722     0.77000
C3340       C  0.84320939  0.53334394  0.28235652     0.77400
C3341       C  0.77873089  0.93083710  0.27920086     0.78500
C3342       C  0.74919721  0.52410463  0.34824810     0.77600
Zn3343     Zn  0.79678942  0.77530360  0.00036142     1.49700
Zn3344     Zn  0.73896966  0.78160859  0.04188102     1.49400
Zn3345     Zn  0.73834922  0.74268673  0.47895178     1.49100
Zn3346     Zn  0.77730615  0.71844908  0.03818767     1.49500
O3347       O  0.76224148  0.75431005  0.01540652    -1.83700
O3348       O  0.79978362  0.81670115  0.01778526    -0.74300
O3349       O  0.69612517  0.78899576  0.02437924    -0.74200
O3350       O  0.75570325  0.75764613  0.44007919    -0.73700
O3351       O  0.76007303  0.82201903  0.04683096    -0.74400
O3352       O  0.79788364  0.77985616  0.45426151    -0.74000
O3353       O  0.69623298  0.76049648  0.48136758    -0.74500
O3354       O  0.76058414  0.68101596  0.01857378    -0.73900
O3355       O  0.73538700  0.76284846  0.08372809    -0.74700
O3356       O  0.73500964  0.69706070  0.47658891    -0.74100
O3357       O  0.76251245  0.72021731  0.08129654    -0.74500
O3358       O  0.82362678  0.71437958  0.04036231    -0.74500
O3359       O  0.83446539  0.75396274  0.01254277    -0.74200
C3360       C  0.78403209  0.83239504  0.03582459     0.77500
C3361       C  0.68303041  0.77802338  0.49992068     0.78000
C3362       C  0.77949664  0.77143383  0.43349544     0.77000
C3363       C  0.74490603  0.67591380  0.49389001     0.77400
C3364       C  0.74592161  0.73867959  0.09593273     0.78500
C3365       C  0.84281471  0.73138418  0.02849641     0.77600
Zn3366     Zn  0.99322057  0.75950207  0.29740314     1.49700
Zn3367     Zn  0.55064365  0.79346641  0.27404860     1.49400
Zn3368     Zn  0.52607209  0.73616423  0.23964798     1.49100
Zn3369     Zn  0.98769291  0.79883262  0.23796135     1.49500
O3370       O  0.51394273  0.77237028  0.26209189    -1.83700
O3371       O  0.51340530  0.77464101  0.33461704    -0.74300
O3372       O  0.58829118  0.77323187  0.25963963    -0.74200
O3373       O  0.51149474  0.69846886  0.25927853    -0.73700
O3374       O  0.55423074  0.79771171  0.31886337    -0.74400
O3375       O  0.98965488  0.71448920  0.30062862    -0.74000
O3376       O  0.57177933  0.73266967  0.23535573    -0.74500
O3377       O  0.98128734  0.78109771  0.19663034    -0.73900
O3378       O  0.55069885  0.83476800  0.25759997    -0.74700
O3379       O  0.50654759  0.73753369  0.19828473    -0.74100
O3380       O  0.50662463  0.84090013  0.23304608    -0.74500
O3381       O  0.94599646  0.80440216  0.25596707    -0.74500
O3382       O  0.95093098  0.77607142  0.29701054    -0.74200
C3383       C  0.53734724  0.78921476  0.33978149     0.77500
C3384       C  0.59331645  0.74925919  0.24464851     0.78000
C3385       C  0.99705539  0.69307074  0.28295566     0.77000
C3386       C  0.98952348  0.75659778  0.18392576     0.77400
C3387       C  0.53216854  0.85087548  0.24198956     0.78500
C3388       C  0.93491425  0.79309319  0.27956527     0.77600
C3389       C  0.60790861  0.97049611  0.21504092    -0.05400
C3390       C  0.58729388  0.98802527  0.23264045     0.00600
C3391       C  0.60098581  0.00976808  0.25342453    -0.08000
C3392       C  0.63232079  0.51462726  0.25205937    -0.05400
C3393       C  0.65207690  0.99329548  0.23824770     0.00500
C3394       C  0.63952895  0.97198250  0.21790882    -0.07900
C3395       C  0.65887633  0.95102065  0.19879380     0.62500
H3396       H  0.59868142  0.95497887  0.19846201     0.13100
H3397       H  0.64206069  0.53288517  0.26518862     0.13200
C3398       C  0.58762797  0.53050900  0.27830899     0.62700
F3399       F  0.64168620  0.93275112  0.17988268    -0.22500
F3400       F  0.67648162  0.93238575  0.21745607    -0.19800
F3401       F  0.67710913  0.96779520  0.18067412    -0.19500
F3402       F  0.56105782  0.02177198  0.28889442    -0.19500
F3403       F  0.58394323  0.55951690  0.26739285    -0.19900
F3404       F  0.60741289  0.53164963  0.30321758    -0.22500
C3405       C  0.55374116  0.89854647  0.25984444    -0.05400
C3406       C  0.54050566  0.88232385  0.23593564     0.00600
C3407       C  0.53860839  0.89543345  0.20699716    -0.08000
C3408       C  0.54450223  0.92631332  0.20440072    -0.05400
C3409       C  0.55183562  0.94508238  0.22974070     0.00500
C3410       C  0.56139327  0.92909394  0.25711484    -0.07900
C3411       C  0.58047213  0.94198845  0.28328927     0.62500
H3412       H  0.55801594  0.88676905  0.28102462     0.13100
H3413       H  0.54415769  0.93525379  0.18185529     0.13200
C3414       C  0.03312962  0.87490476  0.17863405     0.62700
F3415       F  0.58210604  0.92305953  0.30819927    -0.22500
F3416       F  0.56868363  0.96875651  0.29322404    -0.19800
F3417       F  0.60968285  0.94589027  0.27441742    -0.19500
F3418       F  0.00419418  0.86397569  0.17846463    -0.19500
F3419       F  0.55290282  0.85235208  0.17836265    -0.19900
F3420       F  0.03626528  0.89127778  0.15229710    -0.22500
C3421       C  0.51465992  0.99126529  0.14253195    -0.05400
C3422       C  0.53737858  0.00476766  0.12663852     0.00600
C3423       C  0.56372236  0.01348944  0.14279560    -0.08000
C3424       C  0.56650455  0.00693763  0.17407883    -0.05400
C3425       C  0.54512301  0.98996763  0.19036245     0.00500
C3426       C  0.51718221  0.98440951  0.17355450    -0.07900
C3427       C  0.98845281  0.96827602  0.18549111     0.62500
H3428       H  0.99381356  0.98240120  0.13051075     0.13100
H3429       H  0.58575815  0.01621472  0.18586655     0.13200
C3430       C  0.58927042  0.02909972  0.12723889     0.62700
F3431       F  0.96400807  0.98725240  0.17887931    -0.22500
F3432       F  0.48946850  0.96461444  0.21464018    -0.19800
F3433       F  0.98370387  0.94089452  0.17116550    -0.19500
F3434       F  0.57747752  0.55740300  0.11744879    -0.19500
F3435       F  0.59851744  0.01201912  0.10276511    -0.19900
F3436       F  0.61414011  0.03290563  0.14647158    -0.22500
C3437       C  0.72688148  0.62787083  0.51275828    -0.05400
C3438       C  0.73622909  0.64418317  0.48799988     0.00600
C3439       C  0.73632678  0.63012238  0.45932804    -0.08000
C3440       C  0.72988561  0.59916726  0.45728556    -0.05400
C3441       C  0.72414393  0.58078123  0.48294450     0.00500
C3442       C  0.71865936  0.59738952  0.51074564    -0.07900
C3443       C  0.70267938  0.58547552  0.53829402     0.62500
H3444       H  0.72498827  0.64008530  0.53392818     0.13100
H3445       H  0.72855831  0.58982476  0.43481259     0.13200
C3446       C  0.74391669  0.64743603  0.43102537     0.62700
F3447       F  0.70315586  0.60546221  0.56251314    -0.22500
F3448       F  0.71636756  0.55956595  0.54870780    -0.19800
F3449       F  0.67267546  0.58087112  0.53107973    -0.19500
F3450       F  0.77104259  0.66201880  0.93751771    -0.19500
F3451       F  0.72191894  0.66932208  0.42507224    -0.19900
F3452       F  0.74560266  0.62895053  0.40574479    -0.22500
C3453       C  0.71399723  0.52221372  0.39079494    -0.05400
C3454       C  0.74291611  0.52842899  0.38120960     0.00600
C3455       C  0.76499646  0.53671393  0.40333029    -0.08000
C3456       C  0.75653234  0.54043128  0.43374647    -0.05400
C3457       C  0.72693542  0.53542709  0.44391379     0.00500
C3458       C  0.70665906  0.52157002  0.42175247    -0.07900
C3459       C  0.67968157  0.50160645  0.42745714     0.62500
H3460       H  0.69768814  0.51441497  0.37385914     0.13100
H3461       H  0.77318935  0.54820098  0.45004799     0.13200
C3462       C  0.79704273  0.54330257  0.39474349     0.62700
F3463       F  0.68120183  0.47622216  0.40909554    -0.22500
F3464       F  0.65315013  0.51704298  0.41996135    -0.19800
F3465       F  0.67861770  0.49062747  0.45638405    -0.19500
F3466       F  0.79643170  0.56458703  0.37194855    -0.19500
F3467       F  0.81123486  0.51718522  0.38486753    -0.19900
F3468       F  0.81401954  0.55447532  0.41894476    -0.22500
C3469       C  0.66629874  0.55804513  0.46826227    -0.05400
C3470       C  0.68693888  0.53999427  0.48626943     0.00600
C3471       C  0.67460063  0.52003112  0.00946970    -0.08000
C3472       C  0.64288070  0.51931559  0.01059671    -0.05400
C3473       C  0.62312388  0.53908808  0.49302442     0.00500
C3474       C  0.63496037  0.55812594  0.47142036    -0.07900
C3475       C  0.61450160  0.57792923  0.45138023     0.62500
H3476       H  0.67500567  0.57191999  0.45056970     0.13100
H3477       H  0.63211228  0.50360312  0.02541127     0.13200
C3478       C  0.68975021  0.49691326  0.03109131     0.62700
F3479       F  0.63071665  0.59798572  0.43463101    -0.22500
F3480       F  0.59486692  0.59449510  0.46903181    -0.19800
F3481       F  0.59803806  0.56006005  0.43150888    -0.19500
F3482       F  0.71738100  0.50465321  0.04265654    -0.19500
F3483       F  0.69181751  0.46943173  0.01656812    -0.19900
F3484       F  0.67254788  0.49291358  0.05646587    -0.22500
C3485       C  0.49582547  0.77214258  0.13308664    -0.05400
C3486       C  0.98220879  0.75261832  0.15165505     0.00600
C3487       C  0.96282338  0.73054457  0.14005550    -0.08000
C3488       C  0.96037394  0.72676921  0.10838053    -0.05400
C3489       C  0.97699133  0.74414087  0.08775639     0.00500
C3490       C  0.49185437  0.77052550  0.10154837    -0.07900
C3491       C  0.50261686  0.79996692  0.08724680     0.62500
H3492       H  0.50921732  0.79005922  0.14314603     0.13100
H3493       H  0.94727367  0.70818515  0.09969321     0.13200
C3494       C  0.94574700  0.71055116  0.16113899     0.62700
F3495       F  0.48965487  0.82430306  0.10222907    -0.22500
F3496       F  0.49519512  0.80426067  0.05745128    -0.19800
F3497       F  0.53354543  0.80224898  0.09102389    -0.19500
F3498       F  0.92949648  0.72823129  0.18103015    -0.19500
F3499       F  0.96583287  0.69229800  0.17756355    -0.19900
F3500       F  0.92573756  0.69232169  0.14535087    -0.22500
C3501       C  0.92492627  0.70446714  0.04051476    -0.05400
C3502       C  0.94044075  0.73241523  0.04529581     0.00600
C3503       C  0.92057065  0.75896550  0.04580269    -0.08000
C3504       C  0.88925984  0.75561360  0.04301870    -0.05400
C3505       C  0.87562506  0.72867112  0.03576136     0.00500
C3506       C  0.89360414  0.70245554  0.03389360    -0.07900
C3507       C  0.87989392  0.67269326  0.02441476     0.62500
H3508       H  0.93657058  0.68316441  0.04296049     0.13100
H3509       H  0.87423438  0.77486248  0.04604361     0.13200
C3510       C  0.92967459  0.79160138  0.04934190     0.62700
F3511       F  0.90151495  0.64991182  0.02206480    -0.22500
F3512       F  0.86539477  0.67593890  0.99638787    -0.19800
F3513       F  0.85928817  0.66401773  0.04543062    -0.19500
F3514       F  0.94994294  0.79837988  0.02791953    -0.19500
F3515       F  0.94028130  0.79677284  0.07831891    -0.19900
F3516       F  0.90603522  0.81214630  0.04457026    -0.22500
C3517       C  0.98673095  0.68624641  0.01925811    -0.05400
C3518       C  0.98864943  0.69736183  0.04985777     0.00600
C3519       C  0.99782479  0.67463834  0.07216022    -0.08000
C3520       C  0.99763842  0.64373452  0.06367817    -0.05400
C3521       C  0.99337986  0.63380583  0.03379117     0.00500
C3522       C  0.98925562  0.65556516  0.01095929    -0.07900
C3523       C  0.99219007  0.64682785  0.47687939     0.62500
H3524       H  0.98009223  0.70119079  0.00133278     0.13100
H3525       H  0.00255191  0.62668606  0.08078830     0.13200
C3526       C  0.01069357  0.67862473  0.10430462     0.62700
F3527       F  0.99522461  0.67148262  0.45817310    -0.22500
F3528       F  0.96554459  0.63285504  0.46886034    -0.19800
F3529       F  0.51717042  0.62717231  0.47305812    -0.19500
F3530       F  0.99045420  0.66794412  0.12472043    -0.19500
F3531       F  0.01807089  0.70733929  0.11201069    -0.19900
F3532       F  0.03721338  0.66174813  0.10763159    -0.22500
C3533       C  0.78375128  0.51226386  0.03673089    -0.05400
C3534       C  0.78310731  0.98030991  0.03225207     0.00600
C3535       C  0.76245215  0.97059046  0.00783477    -0.08000
C3536       C  0.74589031  0.49321186  0.99086917    -0.05400
C3537       C  0.74502907  0.52518178  0.49716530     0.00500
C3538       C  0.76971098  0.53402063  0.01754552    -0.07900
C3539       C  0.78336867  0.56537320  0.51985229     0.62500
H3540       H  0.79883590  0.52068198  0.05435614     0.13100
H3541       H  0.73111895  0.48600102  0.97269904     0.13200
C3542       C  0.75534391  0.93826219  0.99642879     0.62700
F3543       F  0.81389190  0.56207722  0.52701046    -0.22500
F3544       F  0.77094556  0.58262137  0.54258236    -0.19800
F3545       F  0.78208488  0.58064412  0.49278297    -0.19500
F3546       F  0.72659544  0.93679518  0.98347091    -0.19500
F3547       F  0.75555676  0.91676512  0.01862278    -0.19900
F3548       F  0.77451294  0.92962955  0.97383972    -0.22500
C3549       C  0.76814707  0.97688361  0.13376596    -0.05400
C3550       C  0.79087510  0.99107099  0.15059862     0.00600
C3551       C  0.81759871  0.99815579  0.13586407    -0.08000
C3552       C  0.82012216  0.99093264  0.10476844    -0.05400
C3553       C  0.79888769  0.97309643  0.08785843     0.00500
C3554       C  0.77084555  0.96833925  0.10317435    -0.07900
C3555       C  0.74234926  0.95376854  0.09082603     0.62500
H3556       H  0.74724732  0.97233044  0.14495200     0.13100
H3557       H  0.83958604  0.99946269  0.09399048     0.13200
C3558       C  0.84443312  0.51312106  0.15233298     0.62700
F3559       F  0.71796959  0.97307553  0.09513070    -0.22500
F3560       F  0.73752167  0.92741319  0.10648304    -0.19800
F3561       F  0.74285395  0.94705859  0.06089918    -0.19500
F3562       F  0.85122715  0.99506266  0.17869180    -0.19500
F3563       F  0.83660070  0.54227776  0.16051242    -0.19900
F3564       F  0.86981902  0.51424119  0.13486051    -0.22500
C3565       C  0.80825076  0.87950641  0.02017942    -0.05400
C3566       C  0.79356727  0.86374211  0.04274006     0.00600
C3567       C  0.78986838  0.87775149  0.07112787    -0.08000
C3568       C  0.79652910  0.90847802  0.07413511    -0.05400
C3569       C  0.80607231  0.92661392  0.04981452     0.00500
C3570       C  0.81578404  0.91024310  0.02317093    -0.07900
C3571       C  0.83492455  0.92301899  0.99799678     0.62500
H3572       H  0.81340091  0.86738518  0.99958745     0.13100
H3573       H  0.79422954  0.91798410  0.09626814     0.13200
C3574       C  0.77992365  0.86026530  0.09860365     0.62700
F3575       F  0.84012534  0.90401884  0.47445740    -0.22500
F3576       F  0.86428319  0.92630364  0.00845086    -0.19800
F3577       F  0.82630434  0.95030381  0.48722209    -0.19500
F3578       F  0.79675131  0.83376868  0.10148781    -0.19500
F3579       F  0.74969478  0.85363982  0.09537370    -0.19900
F3580       F  0.78386692  0.87643711  0.12529363    -0.22500
C3581       C  0.89607116  0.97018788  0.05638216    -0.05400
C3582       C  0.90060483  0.99187066  0.03391907     0.00600
C3583       C  0.87570001  0.50259502  0.01637041    -0.08000
C3584       C  0.84639064  0.99265451  0.02425196    -0.05400
C3585       C  0.84081582  0.97100774  0.04712843     0.00500
C3586       C  0.86738074  0.95896335  0.06323802    -0.07900
C3587       C  0.86765183  0.93250524  0.08561989     0.62500
H3588       H  0.91590276  0.96111155  0.06820285     0.13100
H3589       H  0.82887674  0.50038411  0.00879858     0.13200
C3590       C  0.87850096  0.52404048  0.98972049     0.62700
F3591       F  0.89476597  0.93001424  0.10189308    -0.22500
F3592       F  0.86399901  0.90577172  0.06995428    -0.19800
F3593       F  0.84577854  0.93536744  0.10690127    -0.19500
F3594       F  0.89595939  0.51434714  0.46914436    -0.19500
F3595       F  0.88933362  0.55139871  0.99988552    -0.19900
F3596       F  0.85118489  0.52984507  0.97465321    -0.22500
C3597       C  0.75443595  0.64220214  0.26135716    -0.05400
C3598       C  0.73831362  0.62252186  0.24304048     0.00600
C3599       C  0.71680185  0.63356111  0.22187422    -0.08000
C3600       C  0.71373128  0.66487318  0.21833532    -0.05400
C3601       C  0.72988892  0.68625359  0.23663301     0.00500
C3602       C  0.75036232  0.67369092  0.25987600    -0.07900
C3603       C  0.76826677  0.69083648  0.28402932     0.62500
H3604       H  0.77046447  0.63197903  0.27741771     0.13100
H3605       H  0.69778124  0.67311366  0.20116837     0.13200
C3606       C  0.69736486  0.61229309  0.20313727     0.62700
F3607       F  0.74918999  0.70746393  0.30129987    -0.22500
F3608       F  0.78897625  0.70872412  0.27119494    -0.19800
F3609       F  0.78438215  0.67222693  0.30410631    -0.19500
F3610       F  0.68059563  0.59502228  0.22220911    -0.19500
F3611       F  0.71548811  0.59348023  0.18608503    -0.19900
F3612       F  0.67756396  0.62766602  0.18356924    -0.22500
C3613       C  0.66883394  0.70761120  0.24393269    -0.05400
C3614       C  0.68866347  0.72905014  0.23149854     0.00600
C3615       C  0.67492849  0.75780558  0.22294109    -0.08000
C3616       C  0.64376333  0.76276128  0.22711982    -0.05400
C3617       C  0.62509257  0.74077158  0.23859817     0.00500
C3618       C  0.63773512  0.71267543  0.24715143    -0.07900
C3619       C  0.61864450  0.68839582  0.26095851     0.62500
H3620       H  0.67771819  0.68698998  0.25354957     0.13100
H3621       H  0.63366184  0.78452343  0.22124322     0.13200
C3622       C  0.69049190  0.78483715  0.20937522     0.62700
F3623       F  0.63580046  0.66371568  0.27080061    -0.22500
F3624       F  0.59781636  0.67833804  0.23950589    -0.19800
F3625       F  0.60365788  0.69995117  0.28564583    -0.19500
F3626       F  0.67565658  0.79280266  0.18246198    -0.19500
F3627       F  0.72032585  0.78034447  0.20296291    -0.19900
F3628       F  0.68856187  0.80894221  0.22925640    -0.22500
C3629       C  0.70581520  0.72645079  0.17003378    -0.05400
C3630       C  0.73008056  0.72048482  0.19130538     0.00600
C3631       C  0.75815495  0.71166499  0.17711833    -0.08000
C3632       C  0.76265764  0.72062012  0.14686049    -0.05400
C3633       C  0.73924200  0.73181205  0.12803225     0.00500
C3634       C  0.70981453  0.73250250  0.13914777    -0.07900
C3635       C  0.68246884  0.73801112  0.11817898     0.62500
H3636       H  0.68289010  0.72569934  0.17701780     0.13100
H3637       H  0.78449040  0.71750244  0.13684802     0.13200
C3638       C  0.78247619  0.69020978  0.19068152     0.62700
F3639       F  0.65560459  0.73321138  0.13246325    -0.22500
F3640       F  0.68378737  0.71851283  0.09369442    -0.19800
F3641       F  0.68198131  0.76743330  0.10800464    -0.19500
F3642       F  0.77083481  0.66196503  0.19437484    -0.19500
F3643       F  0.79407606  0.70027986  0.21778131    -0.19900
F3644       F  0.80678702  0.68645211  0.17192903    -0.22500
C3645       C  0.53855371  0.78115971  0.02028737    -0.05400
C3646       C  0.53102401  0.78475004  0.48875822     0.00600
C3647       C  0.50329852  0.76936924  0.47958815    -0.08000
C3648       C  0.98539404  0.75618421  0.00249378    -0.05400
C3649       C  0.99635270  0.75021636  0.03223476     0.00500
C3650       C  0.52735648  0.75785201  0.03817596    -0.07900
C3651       C  0.54998165  0.74158709  0.05953587     0.62500
H3652       H  0.55720200  0.79387232  0.02961873     0.13100
H3653       H  0.96300364  0.74859783  0.99629122     0.13200
C3654       C  0.98850093  0.76492299  0.44755694     0.62700
F3655       F  0.55112204  0.71124408  0.05255375    -0.22500
F3656       F  0.54369389  0.74527657  0.08940598    -0.19800
F3657       F  0.57871016  0.75249658  0.05671185    -0.19500
F3658       F  0.00137910  0.77742626  0.42315819    -0.19500
F3659       F  0.95910080  0.77607368  0.44776786    -0.19900
F3660       F  0.98741218  0.73424879  0.44199666    -0.22500
C3661       C  0.59793690  0.77293666  0.49408865    -0.05400
C3662       C  0.58841427  0.79922215  0.47760776     0.00600
C3663       C  0.61287804  0.81767891  0.46706624    -0.08000
C3664       C  0.64289965  0.81108354  0.47731737    -0.05400
C3665       C  0.65069010  0.78553401  0.49419852     0.00500
C3666       C  0.62813804  0.76550021  0.50174734    -0.07900
C3667       C  0.63608721  0.73636107  0.01780206     0.62500
H3668       H  0.58205078  0.75619393  0.49946713     0.13100
H3669       H  0.66141043  0.82472532  0.47035974     0.13200
C3670       C  0.61006331  0.84181678  0.44226938     0.62700
F3671       F  0.61139310  0.71852465  0.02213077    -0.22500
F3672       F  0.64962284  0.74220922  0.04575583    -0.19800
F3673       F  0.65661870  0.71937866  0.50099436    -0.19500
F3674       F  0.63616267  0.85818408  0.44006775    -0.19500
F3675       F  0.58754326  0.86276986  0.44726913    -0.19900
F3676       F  0.60538214  0.82798121  0.41449882    -0.22500
C3677       C  0.55609385  0.77100843  0.38843916    -0.05400
C3678       C  0.54580996  0.79530848  0.37121211     0.00600
C3679       C  0.54077821  0.82345288  0.38461839    -0.08000
C3680       C  0.54415336  0.82581247  0.41613825    -0.05400
C3681       C  0.55132481  0.80077375  0.43529599     0.00500
C3682       C  0.55900975  0.77242205  0.42018822    -0.07900
C3683       C  0.56915358  0.74258431  0.43505649     0.62500
H3684       H  0.56099766  0.75026219  0.37633271     0.13100
H3685       H  0.54094042  0.84789811  0.42536951     0.13200
C3686       C  0.53126076  0.85069308  0.36557637     0.62700
F3687       F  0.56431540  0.71817543  0.41594104    -0.22500
F3688       F  0.55348937  0.73630254  0.46054693    -0.19800
F3689       F  0.59976179  0.74297356  0.44149763    -0.19500
F3690       F  0.50350967  0.84566471  0.35157703    -0.19500
F3691       F  0.55230967  0.85545146  0.34366845    -0.19900
F3692       F  0.52889157  0.87672304  0.38282667    -0.22500
C3693       C  0.56355147  0.85468829  0.50220525    -0.05400
C3694       C  0.54374177  0.83924385  0.48163388     0.00600
C3695       C  0.51610138  0.85599061  0.47360504    -0.08000
C3696       C  0.51524602  0.88757492  0.47734803    -0.05400
C3697       C  0.53699204  0.90278993  0.49418324     0.00500
C3698       C  0.56050151  0.88593099  0.50867599    -0.07900
C3699       C  0.58213041  0.90102637  0.53088925     0.62500
H3700       H  0.58196743  0.84239906  0.51325089     0.13100
H3701       H  0.99499413  0.89971957  0.96977962     0.13200
C3702       C  0.48622486  0.84243155  0.46339541     0.62700
F3703       F  0.60456768  0.88130621  0.54153072    -0.22500
F3704       F  0.56639024  0.91174101  0.55543819    -0.19800
F3705       F  0.59570570  0.92486913  0.51695938    -0.19500
F3706       F  0.47585695  0.82242968  0.98587267    -0.19500
F3707       F  0.98905285  0.82942660  0.43487770    -0.19900
F3708       F  0.96409212  0.86477410  0.45927474    -0.22500
C3709       C  0.99405345  0.51366958  0.28382438    -0.05400
C3710       C  0.99449012  0.54498183  0.27761043     0.00600
C3711       C  0.51481874  0.55432168  0.25481335    -0.08000
C3712       C  0.53052999  0.53126935  0.23904595    -0.05400
C3713       C  0.52956687  0.99967290  0.24467561     0.00500
C3714       C  0.50871283  0.99071435  0.26775846    -0.07900
C3715       C  0.00053638  0.95791781  0.27968467     0.62500
H3716       H  0.97924784  0.00602450  0.30184578     0.13100
H3717       H  0.54524760  0.53810495  0.22150322     0.13200
C3718       C  0.52074051  0.58643896  0.24313604     0.62700
F3719       F  0.97053701  0.95785009  0.28762911    -0.22500
F3720       F  0.51676377  0.95140726  0.30465272    -0.19800
F3721       F  0.00256972  0.93498083  0.25900399    -0.19500
F3722       F  0.54708127  0.58764723  0.22710237    -0.19500
F3723       F  0.52446698  0.60740163  0.26583543    -0.19900
F3724       F  0.49812861  0.59561370  0.22309193    -0.22500
C3725       C  0.98353618  0.61716266  0.31958284    -0.05400
C3726       C  0.97313056  0.59964833  0.29434276     0.00600
C3727       C  0.96249372  0.61721705  0.26827478    -0.08000
C3728       C  0.47236230  0.64752740  0.26610852    -0.05400
C3729       C  0.98740198  0.66204452  0.28914874     0.00500
C3730       C  0.99145422  0.64764330  0.31735247    -0.07900
C3731       C  0.00455478  0.66415625  0.34483546     0.62500
H3732       H  0.98519433  0.60757559  0.34180408     0.13100
H3733       H  0.46697614  0.66039903  0.24579262     0.13200
C3734       C  0.43892800  0.60807358  0.24494010     0.62700
F3735       F  0.00936126  0.64527831  0.36948199    -0.22500
F3736       F  0.98484765  0.68696897  0.35339070    -0.19800
F3737       F  0.03193230  0.67638209  0.33786250    -0.19500
F3738       F  0.44599522  0.58083360  0.23234145    -0.19500
F3739       F  0.43616766  0.62818438  0.22102590    -0.19900
F3740       F  0.41092182  0.60702540  0.25758069    -0.22500
C3741       C  0.91595204  0.57136295  0.30677970    -0.05400
C3742       C  0.93776782  0.55567078  0.28907895     0.00600
C3743       C  0.92570376  0.53339779  0.26763920    -0.08000
C3744       C  0.89558826  0.52479281  0.27032352    -0.05400
C3745       C  0.87511633  0.54087776  0.28740882     0.00500
C3746       C  0.88494648  0.56525745  0.30519493    -0.07900
C3747       C  0.86267320  0.58466271  0.32227323     0.62500
H3748       H  0.92359653  0.58864572  0.32239456     0.13100
H3749       H  0.88674847  0.50676745  0.25607819     0.13200
C3750       C  0.93855769  0.51888594  0.23890203     0.62700
F3751       F  0.87680944  0.60661946  0.33958532    -0.22500
F3752       F  0.84673506  0.56675621  0.34136651    -0.19800
F3753       F  0.84284010  0.59879815  0.30186594    -0.19500
F3754       F  0.94052597  0.48803105  0.24266908    -0.19500
F3755       F  0.96565561  0.52872127  0.22947380    -0.20700
F3756       F  0.91855996  0.52461634  0.21474605    -0.22500
C3757       C  0.51034371  0.54929844  0.38111239    -0.05400
C3758       C  0.98658232  0.53667159  0.39613208     0.00600
C3759       C  0.95957721  0.53050065  0.38005324    -0.08000
C3760       C  0.95714849  0.53723735  0.34874711    -0.05400
C3761       C  0.97927914  0.55330466  0.33249263     0.00500
C3762       C  0.50786885  0.55731823  0.35013693    -0.07900
C3763       C  0.53714343  0.56972951  0.33900876     0.62500
H3764       H  0.53138034  0.55309059  0.39363418     0.13100
H3765       H  0.93750872  0.52877548  0.33705426     0.13200
C3766       C  0.93345370  0.51636394  0.39587984     0.62700
F3767       F  0.56004210  0.54847488  0.34369443    -0.22500
F3768       F  0.54450193  0.59531110  0.35541052    -0.19800
F3769       F  0.53630265  0.57707645  0.30921669    -0.19500
F3770       F  0.92256068  0.53626825  0.41730203    -0.19500
F3771       F  0.94307147  0.48994850  0.40999971    -0.19900
F3772       F  0.90985701  0.50962207  0.37593052    -0.22500
C3773       C  0.75328384  0.78112909  0.28753119    -0.05400
C3774       C  0.78435964  0.78251968  0.28180332     0.00600
C3775       C  0.79239322  0.77016290  0.25253736    -0.08000
C3776       C  0.76984079  0.75494210  0.23514589    -0.05400
C3777       C  0.74255737  0.74440641  0.24672806     0.00500
C3778       C  0.73381044  0.75953135  0.27450549    -0.07900
C3779       C  0.70559243  0.75424769  0.29310670     0.62500
H3780       H  0.74477262  0.79515576  0.30544565     0.13100
H3781       H  0.77448804  0.75021822  0.21197893     0.13200
C3782       C  0.82342612  0.77115828  0.23786723     0.62700
F3783       F  0.71075547  0.76156162  0.32338556    -0.22500
F3784       F  0.69726336  0.72460818  0.29326444    -0.19800
F3785       F  0.68188640  0.77237137  0.28280268    -0.19500
F3786       F  0.84318599  0.75121538  0.25222206    -0.19500
F3787       F  0.83515939  0.79954859  0.23784854    -0.19900
F3788       F  0.82230778  0.76236418  0.20769420    -0.22500
C3789       C  0.79160471  0.84650787  0.26934249    -0.05400
C3790       C  0.78997409  0.83562121  0.29945238     0.00600
C3791       C  0.77614271  0.85652150  0.32051259    -0.08000
C3792       C  0.77638916  0.88755432  0.31376173    -0.05400
C3793       C  0.78244536  0.89812626  0.28489614     0.00500
C3794       C  0.78872237  0.87713391  0.26170360    -0.07900
C3795       C  0.79395922  0.88697329  0.22929911     0.62500
H3796       H  0.79689979  0.83092571  0.25156058     0.13100
H3797       H  0.76888341  0.90379345  0.33056403     0.13200
C3798       C  0.75756303  0.84976208  0.34822927     0.62700
F3799       F  0.80482347  0.86351202  0.21164151    -0.22500
F3800       F  0.81490094  0.90965133  0.22921389    -0.19800
F3801       F  0.76715418  0.89734432  0.21596083    -0.19500
F3802       F  0.77306964  0.85855731  0.37431539    -0.19500
F3803       F  0.74917011  0.82036669  0.35083668    -0.19900
F3804       F  0.73080327  0.86642185  0.34639795    -0.22500
C3805       C  0.88823755  0.77311474  0.29950178    -0.05400
C3806       C  0.90234781  0.79747568  0.28644394     0.00600
C3807       C  0.88555066  0.82445720  0.28170824    -0.08000
C3808       C  0.85496455  0.82560420  0.28981575    -0.05400
C3809       C  0.83900522  0.80004009  0.29997198     0.00500
C3810       C  0.85746232  0.77337066  0.30648990    -0.07900
C3811       C  0.84671930  0.74469559  0.32139683     0.62500
H3812       H  0.90197733  0.75313542  0.30410329     0.13100
H3813       H  0.84380154  0.84715260  0.28788211     0.13200
C3814       C  0.89981553  0.85221026  0.26858744     0.62700
F3815       F  0.86655736  0.72050484  0.31778331    -0.22500
F3816       F  0.81988727  0.73595549  0.30861480    -0.19800
F3817       F  0.84411112  0.74916904  0.35220419    -0.19500
F3818       F  0.90740819  0.84660488  0.23888973    -0.19500
F3819       F  0.92544021  0.85937856  0.28549292    -0.19900
F3820       F  0.88045985  0.87709553  0.26858431    -0.22500
C3821       C  0.78297570  0.76761214  0.34723632    -0.05400
C3822       C  0.80033113  0.79318715  0.33986621     0.00600
C3823       C  0.81439466  0.80866512  0.36541061    -0.08000
C3824       C  0.80574416  0.80132847  0.39507513    -0.05400
C3825       C  0.78633443  0.77775114  0.40122407     0.00500
C3826       C  0.77616656  0.75947104  0.37698177    -0.07900
C3827       C  0.75911882  0.73063438  0.38244477     0.62500
H3828       H  0.77487562  0.75281912  0.32977907     0.13100
H3829       H  0.81479039  0.81377865  0.41427503     0.13200
C3830       C  0.84005398  0.83117909  0.36336355     0.62700
F3831       F  0.75646161  0.71299910  0.35682158    -0.22500
F3832       F  0.73030194  0.73756080  0.39180625    -0.19800
F3833       F  0.77441787  0.71339631  0.40416341    -0.19500
F3834       F  0.84628289  0.84518598  0.39089086    -0.19500
F3835       F  0.83350172  0.85391067  0.34302662    -0.19900
F3836       F  0.86621484  0.81619397  0.35535658    -0.22500
C3837       C  0.80325008  0.80335928  0.80644325    -0.02100
C3838       C  0.97141764  0.56219166  0.79773884    -0.02100
C3839       C  0.55211641  0.80585668  0.97083540    -0.02100
C3840       C  0.72327102  0.72207990  0.72635426    -0.02100
C3841       C  0.80676762  0.96272711  0.55391317    -0.02100
C3842       C  0.97694433  0.73167128  0.55323721    -0.02100
C3843       C  0.72159973  0.54441145  0.97851056    -0.02100
C3844       C  0.55160552  0.97917414  0.72523163    -0.02100
Zn3845     Zn  0.53772828  0.54462360  0.53755536     1.49700
Zn3846     Zn  0.53499926  0.50050814  0.97769278     1.49400
Zn3847     Zn  0.49985268  0.98435183  0.53597837     1.49100
Zn3848     Zn  0.97636176  0.54227782  0.49563651     1.49500
O3849       O  0.51221909  0.51836342  0.51204662    -1.83700
O3850       O  0.57891917  0.54645899  0.52047207    -0.74300
O3851       O  0.53810502  0.95411674  0.98014997    -0.74200
O3852       O  0.51517097  0.98900460  0.57890500    -0.73700
O3853       O  0.57694688  0.51702254  0.97847290    -0.74400
O3854       O  0.54226210  0.53001054  0.58087654    -0.74000
O3855       O  0.51625211  0.94390322  0.52179306    -0.74500
O3856       O  0.93790931  0.52340061  0.51121092    -0.73900
O3857       O  0.51515901  0.51294213  0.93726267    -0.74700
O3858       O  0.95408707  0.98290151  0.53735704    -0.74100
O3859       O  0.97576135  0.54138348  0.94910066    -0.74500
O3860       O  0.97836369  0.58698057  0.50967756    -0.74500
O3861       O  0.52125570  0.58717838  0.53963315    -0.74200
C3862       C  0.59136792  0.53399711  0.99685588     0.77500
C3863       C  0.52993824  0.93540281  0.00010204     0.78000
C3864       C  0.53203879  0.00750999  0.59311328     0.77000
C3865       C  0.93274447  0.00011342  0.52720915     0.77400
C3866       C  0.99279055  0.52933440  0.92932281     0.78500
C3867       C  0.99736265  0.60101327  0.52661751     0.77600
Zn3868     Zn  0.72990325  0.53524936  0.78110695     1.49700
Zn3869     Zn  0.74897400  0.97919645  0.73941181     1.49400
Zn3870     Zn  0.78811350  0.53883972  0.73887655     1.49100
Zn3871     Zn  0.78807658  0.49663052  0.79911614     1.49500
O3872       O  0.76408066  0.51289191  0.76439846    -1.83700
O3873       O  0.69152143  0.51850160  0.76415403    -0.74300
O3874       O  0.76658736  0.97928344  0.69762235    -0.74200
O3875       O  0.76768979  0.57968642  0.73483534    -0.73700
O3876       O  0.70363252  0.98101294  0.73310039    -0.74400
O3877       O  0.72965235  0.57798184  0.76668671    -0.74000
O3878       O  0.79444520  0.52192363  0.69582570    -0.74500
O3879       O  0.83025846  0.51340509  0.79916554    -0.73900
O3880       O  0.76093063  0.93998772  0.75874940    -0.74700
O3881       O  0.82884277  0.54458585  0.75953769    -0.74100
O3882       O  0.79061322  0.95112439  0.79867571    -0.74500
O3883       O  0.77106544  0.50911090  0.83979791    -0.74500
O3884       O  0.72949829  0.53540392  0.82774509    -0.74200
C3885       C  0.68352883  0.99727484  0.74549788     0.77500
C3886       C  0.78366795  0.99691635  0.68363474     0.78000
C3887       C  0.74526582  0.59197640  0.74778334     0.77000
C3888       C  0.84250454  0.53289516  0.78259553     0.77400
C3889       C  0.77790942  0.93193055  0.78112343     0.78500
C3890       C  0.74799915  0.52443126  0.84769620     0.77600
Zn3891     Zn  0.79780458  0.77562405  0.49929048     1.49700
Zn3892     Zn  0.73975088  0.78197955  0.54035159     1.49400
Zn3893     Zn  0.73744103  0.74251405  0.98001228     1.49100
Zn3894     Zn  0.77812867  0.71874616  0.53714981     1.49500
O3895       O  0.76321583  0.75458230  0.51423647    -1.83700
O3896       O  0.80083727  0.81719028  0.51686242    -0.74300
O3897       O  0.69678820  0.78861486  0.52327993    -0.74200
O3898       O  0.75525498  0.75691255  0.94092760    -0.73700
O3899       O  0.76025569  0.82262634  0.54467885    -0.74400
O3900       O  0.79721628  0.77935047  0.95530867    -0.74000
O3901       O  0.69561055  0.76122974  0.98219569    -0.74500
O3902       O  0.76113168  0.68138272  0.51754620    -0.73900
O3903       O  0.73651813  0.76392543  0.58239368    -0.74700
O3904       O  0.73359388  0.69677231  0.97816885    -0.74100
O3905       O  0.76339973  0.72109724  0.58045627    -0.74500
O3906       O  0.82448571  0.71413836  0.53886947    -0.74500
O3907       O  0.83544271  0.75370081  0.51102793    -0.74200
C3908       C  0.78448666  0.83300466  0.53429924     0.77500
C3909       C  0.68245372  0.77882305  0.00074378     0.78000
C3910       C  0.77906016  0.77075358  0.93441381     0.77000
C3911       C  0.74392548  0.67558065  0.99522488     0.77400
C3912       C  0.74694225  0.73988488  0.59489877     0.78500
C3913       C  0.84372690  0.73094422  0.52679859     0.77600
Zn3914     Zn  0.99180063  0.75826360  0.79685647     1.49700
Zn3915     Zn  0.54948780  0.79308631  0.77363105     1.49400
Zn3916     Zn  0.52536553  0.73562190  0.73885431     1.49100
Zn3917     Zn  0.98652281  0.79842092  0.73745244     1.49500
O3918       O  0.51306959  0.77159840  0.76156287    -1.83700
O3919       O  0.51228700  0.77502245  0.83442406    -0.74300
O3920       O  0.58750172  0.77310531  0.75929480    -0.74200
O3921       O  0.51127809  0.69783997  0.75898176    -0.73700
O3922       O  0.55264600  0.79881134  0.81864526    -0.74400
O3923       O  0.98826749  0.71317012  0.80012851    -0.74000
O3924       O  0.57120029  0.73293957  0.73412098    -0.74500
O3925       O  0.98015395  0.78065615  0.69603926    -0.73900
O3926       O  0.54889526  0.83378301  0.75616170    -0.74700
O3927       O  0.50545724  0.73677990  0.69741697    -0.74100
O3928       O  0.50477663  0.83967549  0.73162463    -0.74500
O3929       O  0.94500615  0.80425909  0.75578719    -0.74500
O3930       O  0.94982302  0.77533029  0.79647257    -0.74200
C3931       C  0.53578546  0.79031358  0.83962417     0.77500
C3932       C  0.59266398  0.74951988  0.74370081     0.78000
C3933       C  0.99596398  0.69176412  0.78257817     0.77000
C3934       C  0.98863531  0.75625760  0.68327156     0.77400
C3935       C  0.53028666  0.84970557  0.74046705     0.78500
C3936       C  0.93395775  0.79280255  0.77934293     0.77600
C3937       C  0.60682041  0.96971629  0.71502975    -0.05400
C3938       C  0.58600225  0.98655291  0.73299378     0.00600
C3939       C  0.59939897  0.00817313  0.75410138    -0.08000
C3940       C  0.63109597  0.51312669  0.75346147    -0.05400
C3941       C  0.65062192  0.99358690  0.73793217     0.00500
C3942       C  0.63840844  0.97210207  0.71752327    -0.07900
C3943       C  0.65805640  0.95206303  0.69776709     0.62500
H3944       H  0.59779645  0.95411518  0.69841701     0.13100
H3945       H  0.64050005  0.53085786  0.76759725     0.13200
C3946       C  0.58710812  0.52590400  0.78176394     0.62700
F3947       F  0.64113472  0.93430871  0.67809880    -0.22500
F3948       F  0.67577952  0.93295265  0.71581288    -0.19800
F3949       F  0.67618298  0.96970147  0.68037377    -0.19500
F3950       F  0.55879916  0.01899930  0.79004673    -0.19500
F3951       F  0.58634919  0.55620660  0.77455050    -0.19900
F3952       F  0.60615317  0.52203465  0.80702009    -0.22500
C3953       C  0.55119500  0.89710965  0.75894452    -0.05400
C3954       C  0.53841416  0.88114713  0.73465948     0.00600
C3955       C  0.53713577  0.89439042  0.70578902    -0.08000
C3956       C  0.54344215  0.92521126  0.70355208    -0.05400
C3957       C  0.55044748  0.94371401  0.72920349     0.00500
C3958       C  0.55947034  0.92742512  0.75649983    -0.07900
C3959       C  0.57908285  0.93952012  0.78265641     0.62500
H3960       H  0.55488517  0.88520357  0.78014265     0.13100
H3961       H  0.54383239  0.93426069  0.68107668     0.13200
C3962       C  0.03227399  0.87519173  0.67876569     0.62700
F3963       F  0.58054727  0.92024220  0.80730286    -0.22500
F3964       F  0.56798830  0.96633287  0.79310945    -0.19800
F3965       F  0.60827204  0.94292892  0.77349100    -0.19500
F3966       F  0.00304449  0.86501030  0.67796012    -0.19500
F3967       F  0.55109449  0.85124344  0.67701975    -0.19900
F3968       F  0.03643937  0.89150049  0.65257183    -0.22500
C3969       C  0.51477123  0.98893831  0.64183327    -0.05400
C3970       C  0.53739748  0.00313802  0.62640239     0.00600
C3971       C  0.56306151  0.01278138  0.64315478    -0.08000
C3972       C  0.56541494  0.00626991  0.67447707    -0.05400
C3973       C  0.54405315  0.98896245  0.69037186     0.00500
C3974       C  0.51648809  0.98296685  0.67306692    -0.07900
C3975       C  0.98732684  0.96866790  0.68573314     0.62500
H3976       H  0.99289348  0.98377889  0.63106785     0.13100
H3977       H  0.58426976  0.01585618  0.68668040     0.13200
C3978       C  0.58835522  0.02935853  0.62822008     0.62700
F3979       F  0.96306227  0.98810056  0.67992266    -0.22500
F3980       F  0.48713542  0.96606787  0.71418234    -0.19800
F3981       F  0.98223716  0.94188278  0.67039627    -0.19500
F3982       F  0.57966195  0.55565459  0.61849112    -0.19500
F3983       F  0.59880466  0.01264200  0.60400420    -0.19900
F3984       F  0.61259467  0.03410173  0.64802974    -0.22500
C3985       C  0.72671201  0.62698471  0.01380027    -0.05400
C3986       C  0.73564788  0.64375226  0.98917504     0.00600
C3987       C  0.73631536  0.62989576  0.96044736    -0.08000
C3988       C  0.73029158  0.59887139  0.95804426    -0.05400
C3989       C  0.72481509  0.58008888  0.98348204     0.00500
C3990       C  0.71941453  0.59623952  0.01158163    -0.07900
C3991       C  0.70444545  0.58345928  0.03932780     0.62500
H3992       H  0.72450725  0.63899190  0.03505389     0.13100
H3993       H  0.72901267  0.58982741  0.93545271     0.13200
C3994       C  0.74401604  0.64760282  0.93244212     0.62700
F3995       F  0.70571387  0.60275608  0.06408108    -0.22500
F3996       F  0.71857963  0.55738548  0.04860859    -0.19800
F3997       F  0.67427468  0.57880123  0.03295807    -0.19500
F3998       F  0.77156534  0.66085034  0.43535152    -0.19500
F3999       F  0.72139076  0.66872434  0.92602946    -0.19900
F4000       F  0.74705829  0.62926898  0.90720507    -0.22500
C4001       C  0.71352969  0.52168183  0.89083926    -0.05400
C4002       C  0.74203225  0.52869658  0.88070754     0.00600
C4003       C  0.76427410  0.53760754  0.90236354    -0.08000
C4004       C  0.75649747  0.54062948  0.93306140    -0.05400
C4005       C  0.72723258  0.53506008  0.94381122     0.00500
C4006       C  0.70675007  0.52095399  0.92195900    -0.07900
C4007       C  0.68010743  0.50069884  0.92822605     0.62500
H4008       H  0.69713460  0.51355251  0.87416176     0.13100
H4009       H  0.77336810  0.54848864  0.94907778     0.13200
C4010       C  0.79571553  0.54563574  0.89292170     0.62700
F4011       F  0.68089911  0.47574063  0.90923347    -0.22500
F4012       F  0.65325499  0.51614046  0.92219690    -0.19800
F4013       F  0.68034464  0.48902410  0.95693959    -0.19500
F4014       F  0.79362397  0.56665281  0.86985482    -0.19500
F4015       F  0.81087214  0.52008827  0.88298786    -0.19900
F4016       F  0.81262464  0.55788675  0.91661045    -0.22500
C4017       C  0.66698392  0.55761113  0.96905551    -0.05400
C4018       C  0.68771016  0.53915770  0.98655162     0.00600
C4019       C  0.67384362  0.52146939  0.50968738    -0.08000
C4020       C  0.64217743  0.52160921  0.51150159    -0.05400
C4021       C  0.62377849  0.53763745  0.99299565     0.00500
C4022       C  0.63566761  0.55775680  0.97243568    -0.07900
C4023       C  0.61525527  0.57903469  0.95397107     0.62500
H4024       H  0.67561217  0.57200733  0.95175752     0.13100
H4025       H  0.63126857  0.50678263  0.52707769     0.13200
C4026       C  0.68911175  0.49802409  0.53089908     0.62700
F4027       F  0.63150966  0.59832578  0.93638266    -0.22500
F4028       F  0.59795055  0.59638734  0.97324497    -0.19800
F4029       F  0.59642537  0.56261578  0.93495750    -0.19500
F4030       F  0.71607388  0.50659950  0.54357395    -0.19500
F4031       F  0.69266604  0.47124760  0.51542480    -0.19900
F4032       F  0.67145721  0.49205987  0.55551338    -0.22500
C4033       C  0.49478704  0.77191989  0.63256042    -0.05400
C4034       C  0.98162261  0.75240107  0.65087660     0.00600
C4035       C  0.96255872  0.73018952  0.63897316    -0.08000
C4036       C  0.96030465  0.72663173  0.60723508    -0.05400
C4037       C  0.97708666  0.74411919  0.58685401     0.00500
C4038       C  0.49117004  0.77056604  0.60096850    -0.07900
C4039       C  0.50184433  0.80015720  0.58690833     0.62500
H4040       H  0.50800236  0.78981305  0.64290116     0.13100
H4041       H  0.94726497  0.70811257  0.59829566     0.13200
C4042       C  0.94559992  0.70986303  0.65983937     0.62700
F4043       F  0.48854906  0.82431571  0.60187850    -0.22500
F4044       F  0.49465083  0.80448828  0.55704047    -0.19800
F4045       F  0.53271493  0.80269677  0.59099146    -0.19500
F4046       F  0.92817690  0.72726780  0.67894673    -0.19500
F4047       F  0.96581477  0.69253810  0.67712232    -0.19900
F4048       F  0.92674879  0.69066367  0.64379892    -0.22500
C4049       C  0.92610139  0.70424273  0.53800486    -0.05400
C4050       C  0.94128109  0.73220902  0.54375082     0.00600
C4051       C  0.92122197  0.75859891  0.54446643    -0.08000
C4052       C  0.88996028  0.75494319  0.54203000    -0.05400
C4053       C  0.87654956  0.72810084  0.53401085     0.00500
C4054       C  0.89478803  0.70211449  0.53125794    -0.07900
C4055       C  0.88141138  0.67252612  0.52071466     0.62500
H4056       H  0.93801789  0.68302482  0.53955418     0.13100
H4057       H  0.87479916  0.77396102  0.54574017     0.13200
C4058       C  0.92999272  0.79139124  0.54771224     0.62700
F4059       F  0.90318889  0.64989396  0.51827149    -0.22500
F4060       F  0.86750607  0.67642271  0.49248568    -0.19800
F4061       F  0.86037998  0.66320800  0.54099877    -0.19500
F4062       F  0.95023250  0.79835384  0.52626502    -0.19500
F4063       F  0.94042466  0.79694523  0.57667515    -0.19900
F4064       F  0.90609834  0.81158645  0.54267926    -0.22500
C4065       C  0.98941216  0.68652099  0.51841816    -0.05400
C4066       C  0.98969999  0.69749841  0.54908497     0.00600
C4067       C  0.99732414  0.67452213  0.57162999    -0.08000
C4068       C  0.99630230  0.64367913  0.56313410    -0.05400
C4069       C  0.99350689  0.63393516  0.53307650     0.00500
C4070       C  0.99184924  0.65582465  0.51015797    -0.07900
C4071       C  0.98685405  0.64647992  0.97771636     0.62500
H4072       H  0.98442258  0.70168040  0.50010298     0.13100
H4073       H  0.99981743  0.62649084  0.58040659     0.13200
C4074       C  0.00987711  0.67810920  0.60391745     0.62700
F4075       F  0.98765840  0.67111711  0.95866611    -0.22500
F4076       F  0.95996410  0.63196734  0.97214229    -0.19800
F4077       F  0.51378586  0.62777289  0.97175368    -0.19500
F4078       F  0.98917525  0.66776503  0.62403363    -0.19500
F4079       F  0.01778565  0.70664496  0.61180441    -0.19900
F4080       F  0.03598463  0.66062564  0.60745096    -0.22500
C4081       C  0.78263254  0.51255356  0.53693858    -0.05400
C4082       C  0.78330093  0.98089402  0.53190579     0.00600
C4083       C  0.76303840  0.97095504  0.50730662    -0.08000
C4084       C  0.74475430  0.49383991  0.49103385    -0.05400
C4085       C  0.74611809  0.52456905  0.99686167     0.00500
C4086       C  0.76853203  0.53449999  0.51800323    -0.07900
C4087       C  0.78471456  0.56482282  0.01900738     0.62500
H4088       H  0.79767806  0.52082950  0.55466304     0.13100
H4089       H  0.72984402  0.48674030  0.47290281     0.13200
C4090       C  0.75657622  0.93845056  0.49607081     0.62700
F4091       F  0.81533905  0.56133711  0.02556509    -0.22500
F4092       F  0.77282150  0.58218001  0.04195224    -0.19800
F4093       F  0.78297227  0.58008429  0.99194778    -0.19500
F4094       F  0.72866529  0.93664905  0.48132843    -0.19500
F4095       F  0.75545019  0.91753740  0.51877538    -0.19900
F4096       F  0.77713621  0.92929119  0.47500409    -0.22500
C4097       C  0.76742051  0.97616766  0.63389226    -0.05400
C4098       C  0.78997236  0.99032481  0.65099942     0.00600
C4099       C  0.81659907  0.99797580  0.63634331    -0.08000
C4100       C  0.81906441  0.99162059  0.60504709    -0.05400
C4101       C  0.79817168  0.97369203  0.58782688     0.00500
C4102       C  0.77011895  0.96847936  0.60302883    -0.07900
C4103       C  0.74151909  0.95449141  0.59020736     0.62500
H4104       H  0.74658343  0.97118525  0.64499700     0.13100
H4105       H  0.83833603  0.00072508  0.59439141     0.13200
C4106       C  0.84402087  0.51068611  0.65292561     0.62700
F4107       F  0.71725503  0.97372858  0.59536473    -0.22500
F4108       F  0.73658013  0.92755769  0.60478895    -0.19800
F4109       F  0.74188665  0.94903826  0.56002466    -0.19500
F4110       F  0.85018470  0.99372047  0.67910411    -0.19500
F4111       F  0.83804151  0.54017578  0.66137384    -0.19900
F4112       F  0.86979057  0.51019090  0.63593426    -0.22500
C4113       C  0.80915930  0.88025787  0.51964628    -0.05400
C4114       C  0.79373969  0.86439955  0.54156606     0.00600
C4115       C  0.78914822  0.87829287  0.56986895    -0.08000
C4116       C  0.79599446  0.90895064  0.57339242    -0.05400
C4117       C  0.80640757  0.92723555  0.54960136     0.00500
C4118       C  0.81695381  0.91089384  0.52321050    -0.07900
C4119       C  0.83733631  0.92346235  0.49890943     0.62500
H4120       H  0.81479517  0.86822145  0.49914271     0.13100
H4121       H  0.79303061  0.91828363  0.59548898     0.13200
C4122       C  0.77772154  0.86079718  0.59668141     0.62700
F4123       F  0.83603174  0.90399307  0.97306019    -0.22500
F4124       F  0.86609755  0.92724819  0.51080348    -0.19800
F4125       F  0.82369381  0.95022608  0.98742666    -0.19500
F4126       F  0.79365787  0.83379293  0.59982106    -0.19500
F4127       F  0.74739008  0.85512085  0.59221639    -0.19900
F4128       F  0.78118843  0.87653603  0.62368109    -0.22500
C4129       C  0.89595865  0.97150646  0.55719791    -0.05400
C4130       C  0.90071653  0.99220627  0.53384266     0.00600
C4131       C  0.87458539  0.50338048  0.51656343    -0.08000
C4132       C  0.84648297  0.99317750  0.52419689    -0.05400
C4133       C  0.84073441  0.97211003  0.54759392     0.00500
C4134       C  0.86716806  0.96060536  0.56428353    -0.07900
C4135       C  0.86740210  0.93452902  0.58709835     0.62500
H4136       H  0.91568679  0.96275735  0.56945990     0.13100
H4137       H  0.82777394  0.50114333  0.50899733     0.13200
C4138       C  0.87716825  0.52604092  0.49091458     0.62700
F4139       F  0.89357078  0.93394942  0.60502876    -0.22500
F4140       F  0.86612556  0.90743307  0.57165415    -0.19800
F4141       F  0.84415712  0.93621455  0.60692698    -0.19500
F4142       F  0.89780355  0.51144845  0.96890189    -0.19500
F4143       F  0.88846629  0.55276834  0.50225545    -0.19900
F4144       F  0.84966420  0.53283527  0.47664125    -0.22500
C4145       C  0.75390055  0.64402669  0.76183716    -0.05400
C4146       C  0.73883898  0.62414039  0.74283424     0.00600
C4147       C  0.71850778  0.63502694  0.72045826    -0.08000
C4148       C  0.71478889  0.66634557  0.71715150    -0.05400
C4149       C  0.73013235  0.68795019  0.73587572     0.00500
C4150       C  0.75010048  0.67556066  0.75971548    -0.07900
C4151       C  0.76794000  0.69294741  0.78376303     0.62500
H4152       H  0.76905560  0.63391426  0.77877486     0.13100
H4153       H  0.69919917  0.67438278  0.69956914     0.13200
C4154       C  0.70117271  0.61348547  0.70001670     0.62700
F4155       F  0.74885584  0.70957130  0.80101924    -0.22500
F4156       F  0.78848190  0.71087280  0.77077495    -0.19800
F4157       F  0.78430911  0.67458264  0.80386590    -0.19500
F4158       F  0.68351796  0.59538501  0.71741289    -0.19500
F4159       F  0.72118946  0.59550386  0.68422703    -0.19900
F4160       F  0.68249145  0.62856458  0.67918433    -0.22500
C4161       C  0.66872134  0.70865257  0.74267308    -0.05400
C4162       C  0.68832285  0.73029447  0.73020251     0.00600
C4163       C  0.67412563  0.75876428  0.72126417    -0.08000
C4164       C  0.64283447  0.76331455  0.72525859    -0.05400
C4165       C  0.62452616  0.74135160  0.73736501     0.00500
C4166       C  0.63759927  0.71354116  0.74624043    -0.07900
C4167       C  0.61889755  0.68947499  0.76090137     0.62500
H4168       H  0.67782402  0.68804841  0.75213584     0.13100
H4169       H  0.63239338  0.78480888  0.71895912     0.13200
C4170       C  0.68927314  0.78581931  0.70727266     0.62700
F4171       F  0.63632784  0.66503943  0.77086499    -0.22500
F4172       F  0.59765277  0.67898226  0.74010196    -0.19800
F4173       F  0.60440545  0.70148628  0.78568806    -0.19500
F4174       F  0.67521783  0.79224194  0.67955447    -0.19500
F4175       F  0.71951483  0.78213960  0.70229060    -0.19900
F4176       F  0.68572609  0.81059948  0.72605922    -0.22500
C4177       C  0.70629649  0.72812719  0.66884204    -0.05400
C4178       C  0.73036163  0.72235561  0.69040058     0.00600
C4179       C  0.75866688  0.71386549  0.67646254    -0.08000
C4180       C  0.76339168  0.72266178  0.64619568    -0.05400
C4181       C  0.74009463  0.73353532  0.62708608     0.00500
C4182       C  0.71058209  0.73434474  0.63801411    -0.07900
C4183       C  0.68344001  0.74028601  0.61689176     0.62500
H4184       H  0.68329921  0.72708093  0.67554384     0.13100
H4185       H  0.78528568  0.71948364  0.63632303     0.13200
C4186       C  0.78283600  0.69239129  0.69010533     0.62700
F4187       F  0.65640486  0.73558632  0.63088857    -0.22500
F4188       F  0.68479540  0.72103820  0.59221873    -0.19800
F4189       F  0.68331211  0.76982076  0.60704375    -0.19500
F4190       F  0.77147471  0.66382808  0.69223739    -0.19500
F4191       F  0.79313112  0.70163959  0.71794390    -0.19900
F4192       F  0.80798352  0.68985709  0.67230556    -0.22500
C4193       C  0.53892801  0.78173223  0.51994945    -0.05400
C4194       C  0.53049477  0.78434619  0.98912962     0.00600
C4195       C  0.50275534  0.76893086  0.98011686    -0.08000
C4196       C  0.98618028  0.75668794  0.50175653    -0.05400
C4197       C  0.99696829  0.75057352  0.53154331     0.00500
C4198       C  0.52763451  0.75847970  0.53783899    -0.07900
C4199       C  0.55017585  0.74231067  0.55936621     0.62500
H4200       H  0.55767205  0.79435836  0.52921251     0.13100
H4201       H  0.96407302  0.74860583  0.49518717     0.13200
C4202       C  0.98780282  0.76277782  0.94806951     0.62700
F4203       F  0.55140317  0.71194753  0.55250015    -0.22500
F4204       F  0.54367068  0.74610840  0.58918000    -0.19800
F4205       F  0.57893786  0.75320275  0.55664630    -0.19500
F4206       F  0.00066835  0.77456354  0.92330049    -0.19500
F4207       F  0.95840430  0.77395651  0.94798363    -0.19900
F4208       F  0.98669984  0.73197550  0.94338960    -0.22500
C4209       C  0.59742190  0.77326514  0.99453271    -0.05400
C4210       C  0.58765917  0.79957445  0.97814405     0.00600
C4211       C  0.61198391  0.81836127  0.96789318    -0.08000
C4212       C  0.64207302  0.81198786  0.97822786    -0.05400
C4213       C  0.65007291  0.78636829  0.99497774     0.00500
C4214       C  0.62766851  0.76608285  0.00229286    -0.07900
C4215       C  0.63623799  0.73597226  0.51772086     0.62500
H4216       H  0.58174352  0.75618264  0.99951549     0.13100
H4217       H  0.66046334  0.82586420  0.97141835     0.13200
C4218       C  0.60890331  0.84268582  0.94331010     0.62700
F4219       F  0.61143231  0.71815130  0.52159950    -0.22500
F4220       F  0.64900520  0.74220852  0.54591532    -0.19800
F4221       F  0.65595816  0.71993072  0.00033521    -0.19500
F4222       F  0.63486599  0.85927173  0.94118445    -0.19500
F4223       F  0.58621883  0.86340124  0.94853426    -0.19900
F4224       F  0.60420755  0.82905784  0.91544121    -0.22500
C4225       C  0.55489082  0.77217296  0.88820561    -0.05400
C4226       C  0.54417774  0.79647338  0.87121578     0.00600
C4227       C  0.53902612  0.82445976  0.88501515    -0.08000
C4228       C  0.54276455  0.82655486  0.91661548    -0.05400
C4229       C  0.55043577  0.80140046  0.93550799     0.00500
C4230       C  0.55844646  0.77342172  0.91993363    -0.07900
C4231       C  0.56992520  0.74391807  0.93442936     0.62500
H4232       H  0.55986237  0.75158479  0.87587153     0.13100
H4233       H  0.53955341  0.84853182  0.92614305     0.13200
C4234       C  0.52941780  0.85188217  0.86629925     0.62700
F4235       F  0.56671141  0.71952516  0.91496453    -0.22500
F4236       F  0.55416461  0.73661224  0.95959939    -0.19800
F4237       F  0.60037313  0.74582544  0.94122211    -0.19500
F4238       F  0.50240313  0.84645580  0.85100796    -0.19500
F4239       F  0.55122907  0.85775792  0.84546962    -0.19900
F4240       F  0.52554278  0.87739525  0.88406012    -0.22500
C4241       C  0.56218404  0.85453757  0.00315851    -0.05400
C4242       C  0.54249093  0.83909571  0.98246443     0.00600
C4243       C  0.51466018  0.85565931  0.97465557    -0.08000
C4244       C  0.51346227  0.88720170  0.97886569    -0.05400
C4245       C  0.53531625  0.90250606  0.99548017     0.00500
C4246       C  0.55910667  0.88577422  0.00960944    -0.07900
C4247       C  0.58127892  0.90112581  0.03107051     0.62500
H4248       H  0.58074204  0.84234121  0.01405634     0.13100
H4249       H  0.99740160  0.90160341  0.46808328     0.13200
C4250       C  0.48493179  0.84193355  0.96416327     0.62700
F4251       F  0.60348027  0.88133057  0.04206375    -0.22500
F4252       F  0.56610309  0.91297675  0.05548343    -0.19800
F4253       F  0.59509359  0.92419328  0.01612508    -0.19500
F4254       F  0.47704381  0.82323898  0.48537085    -0.19500
F4255       F  0.98775097  0.82655693  0.93628190    -0.19900
F4256       F  0.96266994  0.86240173  0.95979020    -0.22500
C4257       C  0.99344335  0.51177927  0.78381194    -0.05400
C4258       C  0.99394509  0.54312888  0.77767613     0.00600
C4259       C  0.51523115  0.55275278  0.75541068    -0.08000
C4260       C  0.53060973  0.52951374  0.73964982    -0.05400
C4261       C  0.52863388  0.99834121  0.74471663     0.00500
C4262       C  0.50753991  0.98931021  0.76751401    -0.07900
C4263       C  0.99819769  0.95788574  0.77990954     0.62500
H4264       H  0.97658232  0.00593265  0.80180948     0.13100
H4265       H  0.54566761  0.53622791  0.72235148     0.13200
C4266       C  0.52256808  0.58475536  0.74420456     0.62700
F4267       F  0.96792235  0.95768154  0.78679888    -0.22500
F4268       F  0.51619694  0.94852533  0.80273507    -0.19800
F4269       F  0.00114858  0.93475220  0.75959677    -0.19500
F4270       F  0.55028709  0.58526470  0.73052936    -0.19500
F4271       F  0.52492218  0.60603193  0.76673778    -0.19900
F4272       F  0.50165363  0.59412591  0.72241167    -0.22500
C4273       C  0.98279103  0.61573365  0.81962166    -0.05400
C4274       C  0.97263088  0.59802818  0.79442897     0.00600
C4275       C  0.96181614  0.61557379  0.76840883    -0.08000
C4276       C  0.47352011  0.64629182  0.76556518    -0.05400
C4277       C  0.98671709  0.66054405  0.78891160     0.00500
C4278       C  0.99019977  0.64639809  0.81735798    -0.07900
C4279       C  0.00184150  0.66341659  0.84515824     0.62500
H4280       H  0.98432828  0.60619452  0.84187606     0.13100
H4281       H  0.46873129  0.65895289  0.74499196     0.13200
C4282       C  0.44121934  0.60636776  0.74348851     0.62700
F4283       F  0.00600966  0.64483954  0.87013553    -0.22500
F4284       F  0.98127973  0.68587131  0.85265675    -0.19800
F4285       F  0.02923054  0.67617912  0.83923456    -0.19500
F4286       F  0.44922546  0.57914635  0.73148077    -0.19500
F4287       F  0.43912130  0.62626076  0.71935534    -0.19900
F4288       F  0.41273799  0.60498840  0.75502744    -0.22500
C4289       C  0.91582178  0.56930924  0.80800433    -0.05400
C4290       C  0.93735344  0.55399170  0.78966571     0.00600
C4291       C  0.92501800  0.53219109  0.76788562    -0.08000
C4292       C  0.89475119  0.52401139  0.77032545    -0.05400
C4293       C  0.87452898  0.53984845  0.78792634     0.00500
C4294       C  0.88477377  0.56335990  0.80667597    -0.07900
C4295       C  0.86297108  0.58182110  0.82531138     0.62500
H4296       H  0.92377279  0.58611718  0.82400061     0.13100
H4297       H  0.88565200  0.50641768  0.75569301     0.13200
C4298       C  0.93792612  0.51768903  0.73915937     0.62700
F4299       F  0.87744559  0.60363240  0.84253795    -0.22500
F4300       F  0.84841461  0.56300425  0.84469590    -0.19800
F4301       F  0.84189587  0.59609122  0.80629048    -0.19500
F4302       F  0.94045510  0.48690061  0.74317940    -0.19500
F4303       F  0.96475102  0.52802717  0.72950769    -0.20700
F4304       F  0.91777661  0.52288753  0.71500469    -0.22500
C4305       C  0.51031236  0.54771902  0.88091278    -0.05400
C4306       C  0.98713497  0.53562523  0.89636542     0.00600
C4307       C  0.96039908  0.52840715  0.88030477    -0.08000
C4308       C  0.95766940  0.53507636  0.84898549    -0.05400
C4309       C  0.97933969  0.55167296  0.83263342     0.00500
C4310       C  0.50774981  0.55605365  0.85006572    -0.07900
C4311       C  0.53703834  0.56860378  0.83919659     0.62500
H4312       H  0.53154190  0.55092454  0.89329503     0.13100
H4313       H  0.93819022  0.52618977  0.83732132     0.13200
C4314       C  0.93492140  0.51323190  0.89619487     0.62700
F4315       F  0.56016869  0.54769125  0.84437545    -0.22500
F4316       F  0.54383945  0.59448457  0.85537359    -0.19800
F4317       F  0.53649316  0.57551401  0.80937943    -0.19500
F4318       F  0.92321237  0.53278169  0.91748903    -0.19500
F4319       F  0.94563948  0.48729040  0.91048624    -0.19900
F4320       F  0.91168033  0.50537529  0.87626983    -0.22500
C4321       C  0.75266557  0.78232648  0.78783806    -0.05400
C4322       C  0.78380202  0.78379736  0.78227141     0.00600
C4323       C  0.79187128  0.77203119  0.75274782    -0.08000
C4324       C  0.76941127  0.75702668  0.73488587    -0.05400
C4325       C  0.74200470  0.74637258  0.74612877     0.00500
C4326       C  0.73307209  0.76115451  0.77400454    -0.07900
C4327       C  0.70448749  0.75569828  0.79197690     0.62500
H4328       H  0.74423474  0.79592556  0.80595828     0.13100
H4329       H  0.77426262  0.75237640  0.71202055     0.13200
C4330       C  0.82299006  0.77304640  0.73819474     0.62700
F4331       F  0.70863819  0.76354180  0.82224756    -0.22500
F4332       F  0.69677240  0.72586871  0.79229493    -0.19800
F4333       F  0.68071618  0.77320066  0.78078945    -0.19500
F4334       F  0.84243904  0.75250121  0.75210398    -0.19500
F4335       F  0.83510998  0.80125643  0.73889695    -0.19900
F4336       F  0.82188627  0.76506779  0.70780106    -0.22500
C4337       C  0.79183827  0.84794532  0.77109998    -0.05400
C4338       C  0.78984594  0.83665864  0.80102064     0.00600
C4339       C  0.77620293  0.85742681  0.82237610    -0.08000
C4340       C  0.77609935  0.88853473  0.81575120    -0.05400
C4341       C  0.78228719  0.89934487  0.78700604     0.00500
C4342       C  0.78944175  0.87866688  0.76386731    -0.07900
C4343       C  0.79647785  0.88903830  0.73203794     0.62500
H4344       H  0.79725329  0.83261478  0.75316875     0.13100
H4345       H  0.76843164  0.90464744  0.83259106     0.13200
C4346       C  0.75819305  0.85029198  0.85038641     0.62700
F4347       F  0.80855307  0.86591756  0.71473920    -0.22500
F4348       F  0.81730355  0.91183474  0.73358962    -0.19800
F4349       F  0.77042498  0.89948930  0.71730034    -0.19500
F4350       F  0.77466535  0.85763580  0.87635266    -0.19500
F4351       F  0.74892895  0.82107953  0.85195154    -0.19900
F4352       F  0.73191785  0.86775429  0.85005536    -0.22500
C4353       C  0.88734273  0.77325187  0.79963806    -0.05400
C4354       C  0.90156303  0.79755124  0.78660086     0.00600
C4355       C  0.88505993  0.82477780  0.78233527    -0.08000
C4356       C  0.85468820  0.82626946  0.79112035    -0.05400
C4357       C  0.83847237  0.80068428  0.80086040     0.00500
C4358       C  0.85663402  0.77372067  0.80677237    -0.07900
C4359       C  0.84568678  0.74495271  0.82127895     0.62500
H4360       H  0.90088001  0.75308315  0.80398360     0.13100
H4361       H  0.84387256  0.84803499  0.78987767     0.13200
C4362       C  0.89929530  0.85230150  0.76870491     0.62700
F4363       F  0.86490053  0.72048282  0.81651647    -0.22500
F4364       F  0.81840224  0.73705790  0.80902396    -0.19800
F4365       F  0.84389078  0.74878196  0.85225288    -0.19500
F4366       F  0.90600941  0.84643586  0.73881661    -0.19500
F4367       F  0.92543852  0.85926341  0.78485610    -0.19900
F4368       F  0.88023425  0.87740292  0.76906918    -0.22500
C4369       C  0.78207484  0.76811910  0.84791566    -0.05400
C4370       C  0.79991833  0.79342966  0.84081609     0.00600
C4371       C  0.81460623  0.80805531  0.86657370    -0.08000
C4372       C  0.80609299  0.80032301  0.89620136    -0.05400
C4373       C  0.78611460  0.77716013  0.90213001     0.00500
C4374       C  0.77538471  0.75955469  0.87760677    -0.07900
C4375       C  0.75778929  0.73100007  0.88268173     0.62500
H4376       H  0.77339805  0.75389564  0.83027002     0.13100
H4377       H  0.81558917  0.81223320  0.91553429     0.13200
C4378       C  0.84055077  0.83028733  0.86475607     0.62700
F4379       F  0.75469978  0.71381019  0.85679461    -0.22500
F4380       F  0.72914778  0.73835479  0.89225691    -0.19800
F4381       F  0.77282894  0.71315391  0.90407064    -0.19500
F4382       F  0.84748092  0.84340978  0.89257343    -0.19500
F4383       F  0.83386040  0.85366103  0.84519324    -0.19900
F4384       F  0.86640038  0.81527442  0.85590695    -0.22500
loop_ 
_geom_bond_atom_site_label_1 
_geom_bond_atom_site_label_2 
_geom_bond_distance 
_geom_bond_site_symmetry_2 
_ccdc_geom_bond_type 
C1          C486   1.610       .  S
C1          C502   1.597       .  S
C1          C521   1.591       .  S
C1          C534   1.594       .  S
C2          C422   1.587       .  S
C2          C438   1.601       .  S
C2          C454   1.590       .  S
C2          C473   1.637       .  S
C3          C358   1.601       .  S
C3          C374   1.617       .  S
C3          C393   1.566       .  S
C3          C406   1.615       .  S
C4          C313   1.589       .  S
C4          C326   1.600       .  S
C4          C342   1.626       .  S
C4          C489   1.604       .  S
C5          C246   1.610       .  S
C5          C265   1.625       .  S
C5          C281   1.581       .  S
C5          C297   1.604       .  S
C6          C201   1.579       .  S
C6          C214   1.625       .  S
C6          C230   1.619       .  S
C6          C361   1.581       .  S
C7          C153   1.607       .  S
C7          C169   1.607       .  S
C7          C182   1.578       .  S
C7          C249   1.595       .  S
C8          C102   1.593       .  S
C8          C121   1.587       .  S
C8          C137   1.622       .  S
C8          C425   1.583       .  S
Zn9          O13   1.970       .  S
Zn9          O14   1.998       .  S
Zn9          O18   2.023       .  S
Zn9          O25   2.021       .  S
Zn10        O561   1.974       .  S
Zn10         O17   2.009       .  S
Zn10         O21   2.044       .  S
Zn10       O1111   2.065   1_545  S
Zn11       O1109   1.965       .  S
Zn11         O16   2.003       .  S
Zn11         O19   2.027       .  S
Zn11       O2214   2.021   1_455  S
Zn12       O2205   1.979   1_556  S
Zn12         O20   2.044   1_556  S
Zn12         O24   2.077   1_556  S
Zn12        O571   2.063       .  S
O13        Zn558   1.976   1_554  S
O13       Zn1107   1.968   1_445  S
O13       Zn2204   1.979   1_454  S
O14         C574   1.272   1_554  A
O15       Zn1106   2.069       .  S
O15          C27   1.278       .  A
O16          C28   1.273       .  A
O17          C26   1.272       .  A
O18        C1124   1.271       .  A
O19         C575   1.272       .  A
O20        C1125   1.277       .  A
O21        C2222   1.278   1_455  A
O22       Zn2203   2.019       .  S
O22          C29   1.276       .  A
O23        Zn560   2.069       .  S
O23          C30   1.279       .  A
O24          C31   1.280       .  A
O25        C2223   1.273   1_455  A
C26         O562   1.272       .  A
C26         C185   1.464       .  S
C27         O567   1.272       .  A
C27         C409   1.488       .  S
C28        O1114   1.270       .  A
C28         C134   1.490       .  S
C29        O1116   1.278       .  A
C29         C294   1.507       .  S
C30        O2213   1.278       .  A
C30         C470   1.497       .  S
C31        O2217   1.272       .  A
C31         C233   1.497       .  S
Zn32         O36   1.954       .  S
Zn32         O37   1.984       .  S
Zn32         O41   2.001       .  S
Zn32         O48   2.050       .  S
Zn33       O1132   1.955       .  S
Zn33         O38   2.020       .  S
Zn33         O40   2.016       .  S
Zn33         O44   1.990       .  S
Zn34         O36   1.964       .  S
Zn34         O39   2.016       .  S
Zn34         O42   2.066       .  S
Zn34         O45   2.021       .  S
Zn35         O36   1.968   1_565  S
Zn35         O43   2.025   1_565  S
Zn35         O47   2.033   1_565  S
Zn35       O1142   2.046       .  S
O36       Zn1129   1.959   1_545  S
O37        C1145   1.273   1_545  A
O38          C50   1.273       .  A
O39          C51   1.274       .  A
O40          C49   1.270       .  A
O41          C51   1.271       .  A
O42        C1146   1.276   1_545  A
O43          C52   1.275       .  A
O44          C53   1.271       .  A
O45          C52   1.275       .  A
O46       Zn1131   2.040       .  S
O46          C53   1.278       .  A
O47          C54   1.272       .  A
O48          C54   1.276       .  A
C49        O1133   1.273       .  A
C49         C105   1.497       .  S
C50        O1138   1.275       .  A
C50         C262   1.502       .  S
C51         C310   1.465       .  S
C52         C457   1.471       .  S
C53         C505   1.478       .  S
C54         C166   1.497       .  S
Zn55         O59   1.945   1_556  S
Zn55         O60   1.988   1_556  S
Zn55         O71   1.966   1_556  S
Zn55        O612   1.993       .  S
Zn56         O59   1.976       .  S
Zn56         O61   2.044       .  S
Zn56         O63   2.041       .  S
Zn56         O67   2.039       .  S
Zn57        O607   1.959       .  S
Zn57         O62   2.025       .  S
Zn57         O65   2.024       .  S
Zn57         O68   2.043       .  S
Zn58         O59   1.976       .  S
Zn58         O66   2.023       .  S
Zn58         O69   2.040       .  S
Zn58         O70   2.064       .  S
O59        Zn605   1.958   1_554  S
O60          C72   1.270       .  A
O61         C621   1.275   1_554  A
O62          C74   1.273       .  A
O63          C72   1.276       .  A
O64        Zn603   1.997       .  S
O64          C74   1.269       .  A
O65          C73   1.274       .  A
O66         C623   1.277   1_554  A
O67          C76   1.276       .  A
O68          C75   1.276       .  A
O69          C76   1.278       .  A
O70          C77   1.275       .  A
O71          C77   1.269       .  A
C72         C278   1.488       .  S
C73         O609   1.276       .  A
C73         C377   1.483       .  S
C74         C537   1.496       .  S
C75         O614   1.277       .  A
C75         C150   1.491       .  S
C76         C345   1.492       .  S
C77         C217   1.487       .  S
Zn78       O2274   1.942       .  S
Zn78         O87   2.016       .  S
Zn78         O94   1.998       .  S
Zn78       O2275   1.978       .  S
Zn79         O82   1.956       .  S
Zn79         O84   2.002       .  S
Zn79         O86   1.996       .  S
Zn79         O90   1.973       .  S
Zn80         O82   1.958       .  S
Zn80         O85   2.020       .  S
Zn80         O88   2.042       .  S
Zn80         O91   1.997       .  S
Zn81       O2274   1.970       .  S
Zn81         O89   2.003       .  S
Zn81         O93   2.057       .  S
Zn81       O2284   2.047       .  S
O82       Zn2270   1.943   1_455  S
O82       Zn2273   1.972   1_455  S
O83       Zn2270   1.986   1_455  S
O83          C95   1.271       .  A
O84          C96   1.270       .  A
O85        C2289   1.273   1_455  A
O86          C95   1.270       .  A
O87          C97   1.271       .  A
O88          C96   1.276       .  A
O89          C98   1.274       .  A
O90          C99   1.268       .  A
O91        C2290   1.271   1_455  A
O92       Zn2273   2.048   1_455  S
O92          C99   1.276       .  A
O93         C100   1.275       .  A
O94         C100   1.272       .  A
C95         C390   1.457       .  S
C96         C329   1.484       .  S
C97        O2277   1.273       .  A
C97         C441   1.480       .  S
C98        O2283   1.271       .  A
C98         C198   1.460       .  S
C99         C118   1.479       .  S
C100        C518   1.496       .  S
C101        C102   1.432       .  A
C101        C106   1.407       .  A
C101        H108   1.080       .  S
C102        C103   1.458       .  A
C103       C1206   1.539       .  S
C103       C1200   1.406       .  A
C104       C1199   1.405       .  A
C104       C1201   1.397   1_545  A
C104        H109   1.084       .  S
C105        C106   1.413       .  A
C105       C1200   1.397       .  A
C106        C107   1.522       .  S
C107        F111   1.385       .  S
C107        F112   1.383       .  S
C107        F113   1.384       .  S
C110       C1199   1.539       .  S
C110        F115   1.381       .  S
C110        F116   1.388       .  S
C110       F1210   1.364       .  S
F114       C1206   1.362       .  S
C117        C118   1.397       .  A
C117        C122   1.410       .  A
C117        H124   1.082       .  S
C118        C119   1.405       .  A
C119       C2318   1.521       .  S
C119        C120   1.406       .  A
C120        C121   1.425       .  A
C120        H125   1.072       .  S
C121        C122   1.451       .  A
C122        C123   1.527       .  S
C123        F127   1.385       .  S
C123        F128   1.363       .  S
C123        F129   1.379       .  S
C126       C2311   1.521       .  S
C126        F130   1.381       .  S
C126        F132   1.385       .  S
C126       F2323   1.384       .  S
F131       C2318   1.384       .  S
C133        C134   1.391       .  A
C133        C138   1.403       .  A
C133       H2332   1.086   1_455  S
C134        C135   1.411       .  A
C135        C142   1.522       .  S
C135        C136   1.412       .  A
C136        C137   1.433       .  A
C136        H141   1.076       .  S
C137        C138   1.451       .  A
C138       C2331   1.514   1_455  S
C139       C2330   1.514       .  S
C139        F143   1.384       .  S
C139        F145   1.384       .  S
C139       F2336   1.348       .  S
H140       C2325   1.086       .  S
C142        F147   1.384       .  S
C142        F148   1.385       .  S
C142       F1242   1.383       .  S
F144       C2331   1.347       .  S
F146       C1238   1.383       .  S
C149        C150   1.392       .  A
C149        C154   1.411       .  A
C149        H156   1.082       .  S
C150        C151   1.410       .  A
C151        C158   1.519       .  S
C151        C152   1.413       .  A
C152        C153   1.431       .  A
C152        H157   1.074       .  S
C153        C154   1.452       .  A
C154        C155   1.526       .  S
C155        F159   1.386       .  S
C155        F160   1.364       .  S
C155        F161   1.379       .  S
C158        F163   1.383       .  S
C158        F164   1.385       .  S
C158        F710   1.383       .  S
F162        C706   1.383       .  S
C165        C166   1.395       .  A
C165        C170   1.413       .  A
C165        H172   1.085       .  S
C166        C167   1.415       .  A
C167        C174   1.516       .  S
C167        C168   1.411       .  A
C168        C169   1.422       .  A
C168        H173   1.077       .  S
C169        C170   1.453       .  A
C170        C171   1.530       .  S
C171        F175   1.387   1_545  S
C171        F176   1.382       .  S
C171        F177   1.370   1_545  S
C174        F178   1.381       .  S
C174        F179   1.383       .  S
C174        F180   1.384       .  S
C181        C182   1.430       .  A
C181        C186   1.401       .  A
C181        H188   1.081       .  S
C182        C731   1.464       .  A
C183        C190   1.535   1_545  S
C183        C184   1.410       .  A
C183        C730   1.463   1_554  A
C184        C733   1.386   1_554  A
C184        H189   1.084       .  S
C185        C186   1.396       .  A
C185        C732   1.386       .  A
C186        C187   1.518       .  S
C187        F191   1.385       .  S
C187        F192   1.384       .  S
C187        F193   1.383       .  S
C190        F194   1.365   1_565  S
C190        F195   1.377       .  S
C190        F196   1.387       .  S
C197        C202   1.399       .  A
C197       C2390   1.382       .  A
C197        H204   1.088   1_655  S
C198        C199   1.402       .  A
C198       C2389   1.381       .  A
C199        C206   1.517       .  S
C199        C200   1.409       .  A
C200        C201   1.427       .  A
C200        H205   1.081       .  S
C201       C2394   1.467       .  A
C202        C203   1.543   1_655  S
C202       C2393   1.467       .  A
C203        F207   1.387   1_455  S
C203        F208   1.359   1_455  S
C203        F209   1.383       .  S
C206        F210   1.383       .  S
C206        F211   1.383       .  S
C206        F212   1.384       .  S
C213        C214   1.441       .  A
C213        C218   1.415       .  A
C213        H220   1.073       .  S
C214        C215   1.457       .  A
C215        C222   1.521       .  S
C215        C216   1.404       .  A
C216        C217   1.386       .  A
C216        H221   1.082       .  S
C217        C218   1.401       .  A
C218        C219   1.518       .  S
C219        F223   1.385       .  S
C219        F224   1.384   1_554  S
C219        F225   1.382       .  S
C222        F226   1.363       .  S
C222        F227   1.370       .  S
C222        F228   1.387       .  S
C229        C230   1.436       .  A
C229        C234   1.411       .  A
C229        H236   1.068       .  S
C230        C231   1.458       .  A
C231        C238   1.526       .  S
C231        C232   1.421       .  A
C232        C233   1.397       .  A
C232        H237   1.086       .  S
C233        C234   1.403       .  A
C234        C783   1.521   1_554  S
C235        C782   1.520       .  S
C235        F239   1.384       .  S
C235        F240   1.382       .  S
C235       F2433   1.384       .  S
C238        F242   1.382       .  S
C238        F243   1.361       .  S
C238        F244   1.386       .  S
F241       C2427   1.384   1_455  S
C245        C250   1.409       .  A
C245       C1342   1.423   1_545  A
C245        H252   1.082       .  S
C246        C247   1.464       .  A
C246       C1341   1.423       .  A
C247        C254   1.554   1_554  S
C247       C1344   1.421   1_554  A
C248       C1343   1.422   1_556  A
C248        C797   1.415   1_565  A
C248        H253   1.074       .  S
C249        C796   1.416   1_545  A
C249        C798   1.436       .  A
C250        C799   1.534       .  S
C250        C797   1.437   1_554  A
C251        C798   1.533       .  S
C251        F255   1.386       .  S
C251        F256   1.380       .  S
C251        F257   1.375       .  S
C254        F258   1.385       .  S
C254        F259   1.370   1_556  S
C254        F260   1.376       .  S
C261        C262   1.394       .  A
C261        C266   1.410       .  A
C261        H268   1.086       .  S
C262        C263   1.411       .  A
C263       C1366   1.520       .  S
C263        C264   1.416       .  A
C264        C265   1.434       .  A
C264        H269   1.074       .  S
C265        C266   1.454       .  A
C266        C267   1.518       .  S
C267        F271   1.383       .  S
C267        F272   1.384       .  S
C267        F273   1.354       .  S
C270       C1359   1.520   1_545  S
C270        F275   1.382       .  S
C270        F276   1.385       .  S
C270       F1370   1.384   1_545  S
F274       C1366   1.384       .  S
C277        C278   1.402       .  A
C277        C282   1.415       .  A
C277        H284   1.082   1_554  S
C278        C279   1.408       .  A
C279        C286   1.523       .  S
C279        C280   1.405       .  A
C280        C281   1.423       .  A
C280        H285   1.069       .  S
C281        C282   1.451       .  A
C282        C283   1.536   1_554  S
C283        F288   1.379   1_556  S
C283        F835   1.386       .  S
C283        F837   1.375       .  S
C286        F290   1.384       .  S
C286        F291   1.382       .  S
C286        F292   1.385       .  S
F287        C831   1.386       .  S
F289        C831   1.375       .  S
C293        C294   1.406       .  A
C293        C298   1.418       .  A
C293        H300   1.081       .  S
C294       C1391   1.414       .  A
C295        C302   1.525   1_554  S
C295       C1390   1.415   1_545  A
C295       C1392   1.406   1_545  A
C296        C297   1.427       .  A
C296       C1391   1.406       .  A
C296       H1397   1.069       .  S
C297        C298   1.451       .  A
C298        C299   1.537       .  S
C299        F303   1.385       .  S
C299        F304   1.380       .  S
C299        F305   1.374       .  S
H301       C1392   1.069   1_545  S
C302        F307   1.384   1_556  S
C302        F308   1.385       .  S
C302        F854   1.382       .  S
F306        C850   1.383       .  S
C309        C310   1.385       .  A
C309        C314   1.409       .  A
C309        H316   1.083       .  S
C310        C311   1.398       .  A
C311        C318   1.517       .  S
C311        C312   1.402       .  A
C312        C313   1.433       .  A
C312        H317   1.081       .  S
C313        C314   1.458       .  A
C314        C315   1.526       .  S
C315        F319   1.359       .  S
C315        F320   1.363       .  S
C315        F321   1.386       .  S
C318        F322   1.384       .  S
C318        F323   1.382       .  S
C318        F324   1.385       .  S
C325        C326   1.431       .  A
C325        C330   1.404       .  A
C325        H332   1.072       .  S
C326        C327   1.451       .  A
C327        C334   1.528       .  S
C327        C328   1.414       .  A
C328        C329   1.399       .  A
C328        H333   1.085       .  S
C329        C330   1.404       .  A
C330        C331   1.524       .  S
C331        F335   1.384       .  S
C331        F336   1.383       .  S
C331        F337   1.384       .  S
C334        F338   1.384       .  S
C334        F339   1.372       .  S
C334        F340   1.384       .  S
C341        C342   1.430       .  A
C341        C346   1.409       .  A
C341        H348   1.072       .  S
C342        C343   1.459       .  A
C343        C350   1.535       .  S
C343        C344   1.415       .  A
C344        C345   1.393       .  A
C344        H349   1.082       .  S
C345        C346   1.408       .  A
C346        C347   1.519       .  S
C347        F351   1.385       .  S
C347        F352   1.383       .  S
C347        F353   1.382       .  S
C350        F354   1.376       .  S
C350        F355   1.364       .  S
C350        F356   1.386       .  S
C357        C362   1.411       .  A
C357        C906   1.416   1_554  A
C357        H364   1.082       .  S
C358        C359   1.466       .  A
C358        C905   1.416       .  A
C359       C2558   1.539   1_455  S
C359       C3100   1.423   1_455  A
C360        C361   1.411       .  A
C360       C3099   1.423   1_554  A
C360        H365   1.082   1_554  S
C361       C2554   1.431       .  A
C362        C363   1.528       .  S
C362       C2553   1.431   1_455  A
C363        F367   1.381       .  S
C363        F368   1.362       .  S
C363        F369   1.382       .  S
C366       C2551   1.540       .  S
C366        F370   1.359       .  S
C366        F371   1.386       .  S
C366        F372   1.384       .  S
C373        C374   1.427       .  A
C373        C378   1.406       .  A
C373        H380   1.067       .  S
C374        C375   1.459       .  A
C375        C382   1.534       .  S
C375        C376   1.420       .  A
C376        C377   1.392       .  A
C376        H381   1.082       .  S
C377        C378   1.401       .  A
C378        C927   1.522       .  S
C379        C926   1.522       .  S
C379        F383   1.383       .  S
C379        F384   1.381       .  S
C379        F933   1.382       .  S
C382        F386   1.385       .  S
C382        F387   1.373       .  S
C382        F388   1.380       .  S
F385        C927   1.382       .  S
C389        C390   1.384       .  A
C389        C394   1.405       .  A
C389        H396   1.084       .  S
C390        C391   1.398       .  A
C391        C398   1.520       .  S
C391        C392   1.400       .  A
C392        C393   1.425       .  A
C392        H397   1.069       .  S
C393        C394   1.460       .  A
C394        C395   1.533       .  S
C395        F399   1.386       .  S
C395        F400   1.372       .  S
C395        F401   1.380       .  S
C398        F402   1.383       .  S
C398        F403   1.383       .  S
C398        F404   1.385       .  S
C405        C406   1.429       .  A
C405        C410   1.420       .  A
C405        H412   1.078       .  S
C406        C407   1.457       .  A
C407        C414   1.521   1_455  S
C407        C408   1.409       .  A
C408        C409   1.384       .  A
C408       H3153   1.083   1_455  S
C409        C410   1.410       .  A
C410        C411   1.516       .  S
C411        F415   1.385       .  S
C411        F416   1.383       .  S
C411        F417   1.383       .  S
H413       C3148   1.083       .  S
C414        F966   1.369       .  S
C414       F2611   1.366       .  S
C414       F2612   1.386       .  S
F418        C962   1.368       .  S
F419       C2606   1.367       .  S
F420       C2606   1.386       .  S
C421        C422   1.418       .  A
C421       C3714   1.414   1_545  A
C421       H1524   1.079       .  S
C422       C2615   1.454       .  A
C423        C430   1.547       .  S
C423        C424   1.418       .  A
C423       C2614   1.455   1_455  A
C424       C1521   1.421   1_545  A
C424        H429   1.075       .  S
C425        C426   1.456       .  A
C425       C1520   1.422       .  A
C426       C2619   1.552       .  S
C426       C3709   1.411   1_455  A
C427       C2618   1.552       .  S
C427        F431   1.386       .  S
C427        F433   1.367       .  S
C427       F2624   1.380       .  S
H428       C1517   1.079       .  S
C430        F434   1.386       .  S
C430        F435   1.373       .  S
C430        F436   1.374   1_455  S
F432       C2619   1.380       .  S
C437        C438   1.427       .  A
C437        C442   1.409       .  A
C437        H444   1.070       .  S
C438        C439   1.455       .  A
C439       C2638   1.534       .  S
C439       C2632   1.412       .  A
C440       C2631   1.413       .  A
C440       C2633   1.393       .  A
C440        H445   1.083       .  S
C441        C442   1.405       .  A
C441       C2632   1.391       .  A
C442        C443   1.521       .  S
C443        F447   1.384       .  S
C443        F448   1.383       .  S
C443        F449   1.384       .  S
C446       C2631   1.532       .  S
C446        F450   1.363       .  S
C446        F451   1.386       .  S
C446        F452   1.379       .  S
C453        C454   1.428       .  A
C453        C458   1.407       .  A
C453        H460   1.082       .  S
C454        C455   1.462       .  A
C455        C462   1.538       .  S
C455        C456   1.404       .  A
C456        C457   1.383       .  A
C456        H461   1.088       .  S
C457        C458   1.404       .  A
C458        C459   1.513       .  S
C459        F463   1.385       .  S
C459        F464   1.379       .  S
C459        F465   1.383       .  S
C462        F466   1.380   1_545  S
C462        F467   1.365       .  S
C462        F468   1.388       .  S
C469        C474   1.415       .  A
C469       C2662   1.392   1_455  A
C469        H476   1.086       .  S
C470        C471   1.407       .  A
C470       C2661   1.391       .  A
C471        C478   1.519       .  S
C471        C472   1.416       .  A
C472        C473   1.436       .  A
C472        H477   1.073       .  S
C473       C2666   1.457       .  A
C474        C475   1.516       .  S
C474       C2665   1.458   1_455  A
C475        F479   1.383       .  S
C475        F480   1.383       .  S
C475        F481   1.355       .  S
C478        F482   1.382       .  S
C478        F483   1.383   1_545  S
C478        F484   1.385       .  S
C485        C486   1.412       .  A
C485        C490   1.413       .  A
C485        H492   1.078       .  S
C486        C487   1.455       .  A
C487        C494   1.541       .  S
C487        C488   1.423       .  A
C488        C489   1.414       .  A
C488        H493   1.067       .  S
C489        C490   1.451       .  A
C490        C491   1.537       .  S
C491        F495   1.386       .  S
C491        F496   1.375       .  S
C491        F497   1.378       .  S
C494        F498   1.376       .  S
C494        F499   1.372       .  S
C494        F500   1.386       .  S
C501        C502   1.420       .  A
C501        C506   1.403       .  A
C501        H508   1.068       .  S
C502        C503   1.449       .  A
C503        C510   1.527       .  S
C503        C504   1.411       .  A
C504        C505   1.395       .  A
C504        H509   1.086       .  S
C505        C506   1.410       .  A
C506        C507   1.523       .  S
C507        F511   1.385       .  S
C507        F512   1.384       .  S
C507        F513   1.383       .  S
C510        F514   1.382       .  S
C510        F515   1.371       .  S
C510        F516   1.386       .  S
C517        C518   1.397       .  A
C517        C522   1.409       .  A
C517        H524   1.082       .  S
C518        C519   1.411       .  A
C519        C526   1.520       .  S
C519        C520   1.414       .  A
C520        C521   1.430       .  A
C520        H525   1.071       .  S
C521        C522   1.448       .  A
C522        C523   1.526       .  S
C523        F527   1.386       .  S
C523        F528   1.366       .  S
C523        F529   1.381       .  S
C526        F530   1.383       .  S
C526        F531   1.383       .  S
C526        F532   1.385       .  S
C533        C534   1.428       .  A
C533        C538   1.407       .  A
C533        H540   1.067       .  S
C534        C535   1.450       .  A
C535        C542   1.535       .  S
C535        C536   1.417       .  A
C536        C537   1.402       .  A
C536        H541   1.081       .  S
C537        C538   1.410       .  A
C538        C539   1.524       .  S
C539        F543   1.376       .  S
C539        F544   1.383       .  S
C539        F545   1.382       .  S
C542        F546   1.385       .  S
C542        F547   1.374       .  S
C542        F548   1.380       .  S
C549       C1034   1.611       .  S
C549       C1050   1.598       .  S
C549       C1069   1.591       .  S
C549       C1082   1.591       .  S
C550        C970   1.585       .  S
C550        C986   1.599       .  S
C550       C1002   1.591       .  S
C550       C1021   1.635       .  S
C551        C906   1.602       .  S
C551        C922   1.617       .  S
C551        C941   1.564       .  S
C551        C954   1.614       .  S
C552        C861   1.592       .  S
C552        C874   1.601       .  S
C552        C890   1.625       .  S
C552       C1037   1.609       .  S
C553        C794   1.612       .  S
C553        C813   1.625       .  S
C553        C829   1.584       .  S
C553        C845   1.605       .  S
C554        C749   1.578       .  S
C554        C762   1.627       .  S
C554        C778   1.620       .  S
C554        C909   1.581       .  S
C555        C701   1.604       .  S
C555        C717   1.609       .  S
C555        C730   1.577       .  S
C555        C797   1.590       .  S
C556        C650   1.594       .  S
C556        C669   1.586       .  S
C556        C685   1.622       .  S
C556        C973   1.585       .  S
Zn557       O561   1.973       .  S
Zn557       O562   2.005       .  S
Zn557       O566   2.024       .  S
Zn557       O573   2.018       .  S
Zn558      O1659   2.069   1_545  S
Zn558       O565   2.017       .  S
Zn558       O569   2.040       .  S
Zn559      O1657   1.967   1_655  S
Zn559       O564   2.004   1_655  S
Zn559       O567   2.026   1_655  S
Zn559      O2762   2.022       .  S
Zn560      O2753   1.979       .  S
Zn560       O568   2.054       .  S
Zn560       O572   2.084       .  S
O561      Zn1655   1.969   1_445  S
O561      Zn2752   1.979   1_455  S
O563      Zn1654   2.062       .  S
O563        C575   1.277   1_556  A
O564        C576   1.273       .  A
O565        C574   1.273       .  A
O566       C1672   1.271       .  A
O568       C1673   1.278   1_545  A
O569       C2770   1.278   1_455  A
O570      Zn2751   2.021       .  S
O570        C577   1.276       .  A
O571        C578   1.279       .  A
O572        C579   1.281       .  A
O573       C2771   1.273   1_455  A
C574        C733   1.464       .  S
C575        C957   1.487   1_554  S
C576       O1662   1.271       .  A
C576        C682   1.492       .  S
C577       O1664   1.278       .  A
C577        C842   1.509       .  S
C578       O2761   1.278       .  A
C578       C1018   1.495       .  S
C579       O2765   1.273       .  A
C579        C781   1.499       .  S
Zn580       O584   1.954       .  S
Zn580       O585   1.993       .  S
Zn580       O589   2.003       .  S
Zn580       O596   2.054       .  S
Zn581      O1680   1.959       .  S
Zn581       O586   2.014       .  S
Zn581       O588   2.026       .  S
Zn581       O592   1.995       .  S
Zn582       O584   1.964       .  S
Zn582       O587   2.012       .  S
Zn582       O590   2.059       .  S
Zn582       O593   2.020       .  S
Zn583       O584   1.971   1_565  S
Zn583       O591   2.027   1_565  S
Zn583      O1690   2.048       .  S
Zn583       O595   2.035   1_565  S
O584      Zn1677   1.960   1_545  S
O585       C1693   1.274   1_545  A
O586        C598   1.273       .  A
O587        C599   1.273       .  A
O588        C597   1.270       .  A
O589        C599   1.272       .  A
O590       C1694   1.275   1_545  A
O591        C600   1.275       .  A
O592        C601   1.272       .  A
O593        C600   1.275       .  A
O594      Zn1679   2.045       .  S
O594        C601   1.279       .  A
O595        C602   1.273       .  A
O596        C602   1.277       .  A
C597       O1681   1.274       .  A
C597        C653   1.500       .  S
C598       O1686   1.275       .  A
C598        C810   1.499       .  S
C599        C858   1.464       .  S
C600       C1005   1.471       .  S
C601       C1053   1.481       .  S
C602        C714   1.498       .  S
Zn603       O607   1.946       .  S
Zn603       O608   2.006       .  S
Zn603       O619   1.973       .  S
Zn604       O607   1.973       .  S
Zn604       O609   2.049       .  S
Zn604       O611   2.041       .  S
Zn604       O615   2.024       .  S
Zn605       O610   2.019       .  S
Zn605       O613   2.018       .  S
Zn605       O616   2.037       .  S
Zn606       O607   1.983       .  S
Zn606       O614   2.023       .  S
Zn606       O617   2.043       .  S
Zn606       O618   2.065       .  S
O608        C620   1.272       .  A
O610        C622   1.272       .  A
O611        C620   1.275       .  A
O612        C622   1.268       .  A
O613        C621   1.274       .  A
O615        C624   1.274       .  A
O616        C623   1.275       .  A
O617        C624   1.278       .  A
O618        C625   1.275       .  A
O619        C625   1.271       .  A
C620        C826   1.492       .  S
C621        C925   1.480       .  S
C622       C1085   1.493       .  S
C623        C698   1.488       .  S
C624        C893   1.491       .  S
C625        C765   1.488       .  S
Zn626      O2822   1.943       .  S
Zn626      O2823   1.980       .  S
Zn626       O635   2.023       .  S
Zn626       O642   1.999       .  S
Zn627       O630   1.953       .  S
Zn627       O632   2.002       .  S
Zn627       O634   1.987       .  S
Zn627       O638   1.960       .  S
Zn628       O630   1.958       .  S
Zn628       O633   2.020       .  S
Zn628       O636   2.055       .  S
Zn628       O639   2.000       .  S
Zn629      O2822   1.970       .  S
Zn629       O637   1.996       .  S
Zn629      O2832   2.034       .  S
Zn629       O641   2.044       .  S
O630      Zn2818   1.944   1_455  S
O630      Zn2821   1.973   1_455  S
O631      Zn2818   1.980   1_455  S
O631        C643   1.271       .  A
O632        C644   1.269       .  A
O633       C2837   1.274   1_455  A
O634        C643   1.269       .  A
O635        C645   1.272       .  A
O636        C644   1.277       .  A
O637        C646   1.273       .  A
O638        C647   1.267       .  A
O639       C2838   1.272   1_455  A
O640      Zn2821   2.047   1_455  S
O640        C647   1.276       .  A
O641        C648   1.273       .  A
O642        C648   1.273       .  A
C643        C938   1.453       .  S
C644        C877   1.488       .  S
C645       O2825   1.274       .  A
C645        C989   1.482       .  S
C646       O2831   1.272       .  A
C646        C746   1.462       .  S
C647        C666   1.475       .  S
C648       C1066   1.494       .  S
C649        C650   1.432       .  A
C649        C654   1.409       .  A
C649        H656   1.080       .  S
C650        C651   1.458       .  A
C651       C1754   1.539       .  S
C651       C1748   1.406       .  A
C652       C1747   1.407       .  A
C652       C1749   1.397   1_545  A
C652        H657   1.083       .  S
C653       C1748   1.397       .  A
C653        C654   1.413       .  A
C654        C655   1.522       .  S
C655        F659   1.385       .  S
C655        F660   1.383       .  S
C655        F661   1.384       .  S
C658       C1747   1.537       .  S
C658       F1758   1.363       .  S
C658        F663   1.381       .  S
C658        F664   1.388       .  S
F662       C1754   1.363       .  S
C665        C666   1.396       .  A
C665        C670   1.408       .  A
C665        H672   1.082       .  S
C666        C667   1.404       .  A
C667       C2866   1.521       .  S
C667        C668   1.406       .  A
C668        C669   1.426       .  A
C668        H673   1.073       .  S
C669        C670   1.450       .  A
C670        C671   1.527       .  S
C671        F675   1.385       .  S
C671        F676   1.362       .  S
C671        F677   1.379       .  S
C674       C2859   1.521       .  S
C674        F678   1.381       .  S
C674       F2871   1.384       .  S
C674        F680   1.385       .  S
F679       C2866   1.384       .  S
C681        C682   1.392       .  A
C681        C686   1.405       .  A
C681       H2880   1.086   1_455  S
C682        C683   1.411       .  A
C683        C690   1.522       .  S
C683        C684   1.412       .  A
C684        C685   1.432       .  A
C684        H689   1.075       .  S
C685        C686   1.451       .  A
C686       C2879   1.514   1_455  S
C687       C2878   1.514       .  S
C687        F691   1.384       .  S
C687       F2884   1.350       .  S
C687        F693   1.384       .  S
H688       C2873   1.086       .  S
C690       F1790   1.383       .  S
C690        F695   1.384       .  S
C690        F696   1.384       .  S
F692       C2879   1.348       .  S
F694       C1786   1.383       .  S
C697        C698   1.391   1_554  A
C697        C702   1.411       .  A
C697        H704   1.082       .  S
C698        C699   1.409       .  A
C699        C706   1.519       .  S
C699        C700   1.411       .  A
C700        C701   1.430       .  A
C700        H705   1.074       .  S
C701        C702   1.452   1_556  A
C702        C703   1.527       .  S
C703        F707   1.386       .  S
C703        F708   1.364       .  S
C703        F709   1.379       .  S
C706        F711   1.383       .  S
C706        F712   1.385       .  S
C713        C714   1.395       .  A
C713        C718   1.413       .  A
C713        H720   1.085       .  S
C714        C715   1.415       .  A
C715        C722   1.516       .  S
C715        C716   1.411       .  A
C716        C717   1.422       .  A
C716        H721   1.076       .  S
C717        C718   1.454       .  A
C718        C719   1.531       .  S
C719        F723   1.387   1_545  S
C719        F724   1.381       .  S
C719        F725   1.370   1_545  S
C722        F726   1.381       .  S
C722        F727   1.383       .  S
C722        F728   1.385       .  S
C729        C730   1.430       .  A
C729        C734   1.402       .  A
C729        H736   1.081       .  S
C731        C738   1.535   1_545  S
C731        C732   1.411       .  A
C732        H737   1.084       .  S
C733        C734   1.397       .  A
C734        C735   1.518       .  S
C735        F739   1.385       .  S
C735        F740   1.383       .  S
C735        F741   1.383       .  S
C738        F742   1.367   1_565  S
C738        F743   1.377       .  S
C738        F744   1.386       .  S
C745       C2938   1.382       .  A
C745        C750   1.398       .  A
C745        H752   1.088   1_655  S
C746       C2937   1.383       .  A
C746        C747   1.402       .  A
C747        C754   1.517       .  S
C747        C748   1.409       .  A
C748        C749   1.426       .  A
C748        H753   1.081       .  S
C749       C2942   1.468       .  A
C750        C751   1.544   1_655  S
C750       C2941   1.467       .  A
C751        F755   1.387   1_455  S
C751        F756   1.360   1_455  S
C751        F757   1.383       .  S
C754        F758   1.383       .  S
C754        F759   1.383       .  S
C754        F760   1.384       .  S
C761        C762   1.442       .  A
C761        C766   1.418       .  A
C761        H768   1.073       .  S
C762        C763   1.457       .  A
C763        C770   1.519       .  S
C763        C764   1.401       .  A
C764        C765   1.384       .  A
C764        H769   1.082       .  S
C765        C766   1.403       .  A
C766        C767   1.518       .  S
C767        F771   1.385       .  S
C767        F772   1.383       .  S
C767        F773   1.382       .  S
C770        F774   1.362       .  S
C770        F775   1.369       .  S
C770        F776   1.387       .  S
C777        C778   1.435       .  A
C777        C782   1.412       .  A
C777        H784   1.070       .  S
C778        C779   1.456       .  A
C779        C786   1.524       .  S
C779        C780   1.421       .  A
C780        C781   1.398       .  A
C780        H785   1.086       .  S
C781        C782   1.405       .  A
C783        F787   1.384       .  S
C783        F788   1.383       .  S
C783       F2981   1.384       .  S
C786        F790   1.382       .  S
C786        F791   1.362       .  S
C786        F792   1.386       .  S
F789       C2975   1.384   1_455  S
C793       C1890   1.425   1_545  A
C793        C798   1.410       .  A
C793        H800   1.081       .  S
C794       C1889   1.423       .  A
C794        C795   1.463       .  A
C795        C802   1.553       .  S
C795       C1892   1.422       .  A
C796       C1891   1.425       .  A
C796        H801   1.074       .  S
C799        F803   1.386       .  S
C799        F804   1.380       .  S
C799        F805   1.374   1_554  S
C802        F806   1.385       .  S
C802        F807   1.371       .  S
C802        F808   1.376       .  S
C809        C810   1.393       .  A
C809        C814   1.410       .  A
C809        H816   1.086       .  S
C810        C811   1.409       .  A
C811       C1914   1.520       .  S
C811        C812   1.415       .  A
C812        C813   1.435       .  A
C812        H817   1.074       .  S
C813        C814   1.455       .  A
C814        C815   1.518       .  S
C815        F819   1.383       .  S
C815        F820   1.384       .  S
C815        F821   1.354       .  S
C818       C1907   1.520   1_545  S
C818       F1918   1.384   1_545  S
C818        F823   1.382       .  S
C818        F824   1.385       .  S
F822       C1914   1.384       .  S
C825        C826   1.401       .  A
C825        C830   1.417       .  A
C825        H832   1.082       .  S
C826        C827   1.409       .  A
C827        C834   1.523       .  S
C827        C828   1.407       .  A
C828        C829   1.423       .  A
C828        H833   1.068       .  S
C829        C830   1.452       .  A
C830        C831   1.536       .  S
C831        F836   1.379       .  S
C834        F838   1.384       .  S
C834        F839   1.383       .  S
C834        F840   1.385       .  S
C841        C842   1.407       .  A
C841        C846   1.419       .  A
C841        H848   1.081       .  S
C842       C1939   1.415       .  A
C843        C850   1.525       .  S
C843       C1938   1.414   1_545  A
C843       C1940   1.407   1_545  A
C844       C1939   1.407       .  A
C844        C845   1.427       .  A
C844       H1945   1.069       .  S
C845        C846   1.452       .  A
C846        C847   1.536       .  S
C847        F851   1.385       .  S
C847        F852   1.381       .  S
C847        F853   1.373       .  S
H849       C1940   1.070       .  S
C850        F855   1.383       .  S
C850        F856   1.385       .  S
C857        C858   1.384       .  A
C857        C862   1.408       .  A
C857        H864   1.083       .  S
C858        C859   1.399       .  A
C859        C866   1.517       .  S
C859        C860   1.403       .  A
C860        C861   1.433       .  A
C860        H865   1.081       .  S
C861        C862   1.456       .  A
C862        C863   1.524       .  S
C863        F867   1.359       .  S
C863        F868   1.364       .  S
C863        F869   1.386       .  S
C866        F870   1.383       .  S
C866        F871   1.383       .  S
C866        F872   1.385       .  S
C873        C874   1.432       .  A
C873        C878   1.406       .  A
C873        H880   1.072       .  S
C874        C875   1.450       .  A
C875        C882   1.530       .  S
C875        C876   1.415       .  A
C876        C877   1.401       .  A
C876        H881   1.085       .  S
C877        C878   1.405       .  A
C878        C879   1.524       .  S
C879        F883   1.384       .  S
C879        F884   1.382       .  S
C879        F885   1.384       .  S
C882        F886   1.384       .  S
C882        F887   1.372       .  S
C882        F888   1.383       .  S
C889        C890   1.428       .  A
C889        C894   1.406       .  A
C889        H896   1.070       .  S
C890        C891   1.460       .  A
C891        C898   1.534       .  S
C891        C892   1.416       .  A
C892        C893   1.394       .  A
C892        H897   1.082       .  S
C893        C894   1.408       .  A
C894        C895   1.521       .  S
C895        F899   1.385       .  S
C895        F900   1.382       .  S
C895        F901   1.382       .  S
C898        F902   1.378       .  S
C898        F903   1.363       .  S
C898        F904   1.385       .  S
C905        C910   1.412       .  A
C905        H912   1.082       .  S
C906        C907   1.465       .  A
C907       C3106   1.538   1_455  S
C907       C2552   1.424   1_456  A
C908       C2551   1.422       .  A
C908        C909   1.409       .  A
C908        H913   1.082       .  S
C909       C3102   1.433       .  A
C910        C911   1.529       .  S
C910       C3101   1.432   1_455  A
C911        F915   1.380       .  S
C911        F916   1.364       .  S
C911        F917   1.382       .  S
C914       C3099   1.538       .  S
C914        F918   1.359       .  S
C914        F919   1.386       .  S
C914        F920   1.383       .  S
C921        C922   1.428       .  A
C921        C926   1.404   1_556  A
C921        H928   1.066       .  S
C922        C923   1.460       .  A
C923        C930   1.535       .  S
C923        C924   1.420       .  A
C924        C925   1.392       .  A
C924        H929   1.082       .  S
C925        C926   1.399   1_556  A
C927        F931   1.384       .  S
C927        F932   1.380       .  S
C930        F934   1.385       .  S
C930        F935   1.373       .  S
C930        F936   1.380       .  S
C937        C938   1.383       .  A
C937        C942   1.403       .  A
C937        H944   1.084       .  S
C938        C939   1.397       .  A
C939        C946   1.520       .  S
C939        C940   1.400       .  A
C940        C941   1.425       .  A
C940        H945   1.069       .  S
C941        C942   1.460       .  A
C942        C943   1.532       .  S
C943        F947   1.386       .  S
C943        F948   1.372       .  S
C943        F949   1.380       .  S
C946        F950   1.383       .  S
C946        F951   1.383       .  S
C946        F952   1.385       .  S
C953        C954   1.429   1_554  A
C953        C958   1.419       .  A
C953        H960   1.078       .  S
C954        C955   1.457       .  A
C955        C962   1.522   1_455  S
C955        C956   1.410       .  A
C956        C957   1.384       .  A
C956       H2605   1.083   1_455  S
C957        C958   1.409   1_556  A
C958        C959   1.516       .  S
C959        F963   1.385       .  S
C959        F964   1.383       .  S
C959        F965   1.383       .  S
H961       C2600   1.083       .  S
C962       F3159   1.367       .  S
C962       F3160   1.386       .  S
F967       C3154   1.367       .  S
F968       C3154   1.386       .  S
C969        C970   1.420       .  A
C969       C4262   1.414   1_545  A
C969       H2072   1.079       .  S
C970       C3163   1.455       .  A
C971        C978   1.546       .  S
C971       C3162   1.454   1_455  A
C971        C972   1.417       .  A
C972       C2069   1.420   1_545  A
C972        H977   1.075       .  S
C973       C2068   1.422       .  A
C973        C974   1.456       .  A
C974       C3167   1.551       .  S
C974       C4257   1.413   1_455  A
C975       C3166   1.550       .  S
C975        F979   1.386       .  S
C975       F3172   1.380       .  S
C975        F981   1.367       .  S
H976       C2065   1.080       .  S
C978        F982   1.386       .  S
C978        F983   1.373       .  S
C978        F984   1.374   1_455  S
F980       C3167   1.380       .  S
C985        C986   1.427       .  A
C985        C990   1.411       .  A
C985        H992   1.070       .  S
C986        C987   1.453       .  A
C987       C3186   1.532       .  S
C987       C3180   1.411       .  A
C988       C3179   1.412       .  A
C988       C3181   1.392       .  A
C988        H993   1.083       .  S
C989       C3180   1.392       .  A
C989        C990   1.407       .  A
C990        C991   1.521       .  S
C991        F995   1.385       .  S
C991        F996   1.383       .  S
C991        F997   1.383       .  S
C994       C3179   1.533       .  S
C994        F998   1.363       .  S
C994        F999   1.386       .  S
C994       F1000   1.379       .  S
C1001      C1002   1.429       .  A
C1001      C1006   1.407       .  A
C1001      H1008   1.082       .  S
C1002      C1003   1.463       .  A
C1003      C1010   1.539       .  S
C1003      C1004   1.404       .  A
C1004      C1005   1.383       .  A
C1004      H1009   1.088       .  S
C1005      C1006   1.404       .  A
C1006      C1007   1.513       .  S
C1007      F1011   1.385       .  S
C1007      F1012   1.379       .  S
C1007      F1013   1.383       .  S
C1010      F1014   1.380   1_545  S
C1010      F1015   1.365       .  S
C1010      F1016   1.388       .  S
C1017      C3210   1.389   1_455  A
C1017      C1022   1.413       .  A
C1017      H1024   1.087       .  S
C1018      C3209   1.389       .  A
C1018      C1019   1.407       .  A
C1019      C1026   1.518       .  S
C1019      C1020   1.416       .  A
C1020      C1021   1.436       .  A
C1020      H1025   1.074       .  S
C1021      C3214   1.457       .  A
C1022      C1023   1.516       .  S
C1022      C3213   1.457   1_455  A
C1023      F1027   1.383       .  S
C1023      F1028   1.383       .  S
C1023      F1029   1.355       .  S
C1026      F1030   1.381       .  S
C1026      F1031   1.383   1_545  S
C1026      F1032   1.385       .  S
C1033      C1034   1.414       .  A
C1033      C1038   1.415       .  A
C1033      H1040   1.075       .  S
C1034      C1035   1.452       .  A
C1035      C1042   1.541       .  S
C1035      C1036   1.423       .  A
C1036      C1037   1.417       .  A
C1036      H1041   1.060       .  S
C1037      C1038   1.452       .  A
C1038      C1039   1.538       .  S
C1039      F1043   1.387       .  S
C1039      F1044   1.373       .  S
C1039      F1045   1.379       .  S
C1042      F1046   1.376       .  S
C1042      F1047   1.373       .  S
C1042      F1048   1.385       .  S
C1049      C1050   1.420       .  A
C1049      C1054   1.404       .  A
C1049      H1056   1.070       .  S
C1050      C1051   1.450       .  A
C1051      C1058   1.528       .  S
C1051      C1052   1.412       .  A
C1052      C1053   1.395       .  A
C1052      H1057   1.086       .  S
C1053      C1054   1.411       .  A
C1054      C1055   1.523       .  S
C1055      F1059   1.385       .  S
C1055      F1060   1.384       .  S
C1055      F1061   1.382       .  S
C1058      F1062   1.382       .  S
C1058      F1063   1.371       .  S
C1058      F1064   1.386       .  S
C1065      C1066   1.395       .  A
C1065      C1070   1.407       .  A
C1065      H1072   1.082       .  S
C1066      C1067   1.411       .  A
C1067      C1074   1.521       .  S
C1067      C1068   1.413       .  A
C1068      C1069   1.430       .  A
C1068      H1073   1.070       .  S
C1069      C1070   1.449       .  A
C1070      C1071   1.526       .  S
C1071      F1075   1.386       .  S
C1071      F1076   1.365       .  S
C1071      F1077   1.381       .  S
C1074      F1078   1.383       .  S
C1074      F1079   1.383       .  S
C1074      F1080   1.385       .  S
C1081      C1082   1.429       .  A
C1081      C1086   1.406       .  A
C1081      H1088   1.069       .  S
C1082      C1083   1.450       .  A
C1083      C1090   1.535       .  S
C1083      C1084   1.416       .  A
C1084      C1085   1.401       .  A
C1084      H1089   1.081       .  S
C1085      C1086   1.409       .  A
C1086      C1087   1.524       .  S
C1087      F1091   1.375       .  S
C1087      F1092   1.383       .  S
C1087      F1093   1.382       .  S
C1090      F1094   1.385       .  S
C1090      F1095   1.374       .  S
C1090      F1096   1.380       .  S
C1097      C1582   1.612       .  S
C1097      C1598   1.599       .  S
C1097      C1617   1.593       .  S
C1097      C1630   1.593       .  S
C1098      C1518   1.583       .  S
C1098      C1534   1.598       .  S
C1098      C1550   1.592       .  S
C1098      C1569   1.637       .  S
C1099      C1454   1.601       .  S
C1099      C1470   1.617       .  S
C1099      C1489   1.566       .  S
C1099      C1502   1.613       .  S
C1100      C1409   1.591       .  S
C1100      C1422   1.600       .  S
C1100      C1438   1.625       .  S
C1100      C1585   1.607       .  S
C1101      C1342   1.611       .  S
C1101      C1361   1.626       .  S
C1101      C1377   1.581       .  S
C1101      C1393   1.603       .  S
C1102      C1297   1.580       .  S
C1102      C1310   1.626       .  S
C1102      C1326   1.621       .  S
C1102      C1457   1.582       .  S
C1103      C1249   1.604       .  S
C1103      C1265   1.608       .  S
C1103      C1278   1.577       .  S
C1103      C1345   1.593       .  S
C1104      C1198   1.593       .  S
C1104      C1217   1.586       .  S
C1104      C1233   1.623       .  S
C1104      C1521   1.586       .  S
Zn1105     O1109   1.970       .  S
Zn1105     O1110   2.001       .  S
Zn1105     O1114   2.017       .  S
Zn1105     O1121   2.014       .  S
Zn1106     O1657   1.973       .  S
Zn1106     O1113   2.013       .  S
Zn1106     O1117   2.040       .  S
Zn1107     O1112   2.012   1_655  S
Zn1107     O1115   2.033   1_655  S
Zn1107     O3310   2.019       .  S
Zn1108     O3301   1.977   1_556  S
Zn1108     O1116   2.050   1_556  S
Zn1108     O1667   2.059       .  S
Zn1108     O1120   2.079   1_556  S
O1109     Zn1654   1.972   1_554  S
O1109     Zn3300   1.977   1_454  S
O1110      C1670   1.271   1_554  A
O1111      C1123   1.278       .  A
O1112      C1124   1.274   1_565  A
O1113      C1122   1.272       .  A
O1115      C1671   1.273   1_554  A
O1117      C3318   1.278   1_455  A
O1118     Zn3299   2.019       .  S
O1118      C1125   1.276   1_565  A
O1119     Zn1656   2.068       .  S
O1119      C1126   1.279       .  A
O1120      C1127   1.280       .  A
O1121      C3319   1.272   1_455  A
C1122      O1658   1.272       .  A
C1122      C1281   1.466       .  S
C1123      O1663   1.273       .  A
C1123      C1505   1.489       .  S
C1124      C1230   1.494       .  S
C1125      C1390   1.507   1_545  S
C1126      O3309   1.277       .  A
C1126      C1566   1.496       .  S
C1127      O3313   1.272       .  A
C1127      C1329   1.498       .  S
Zn1128     O1132   1.953       .  S
Zn1128     O1133   1.990       .  S
Zn1128     O1137   1.999       .  S
Zn1128     O1144   2.053       .  S
Zn1129     O1134   2.016       .  S
Zn1129     O1136   2.025       .  S
Zn1129     O1140   2.002       .  S
Zn1130     O1132   1.961       .  S
Zn1130     O1135   2.010       .  S
Zn1130     O1138   2.060       .  S
Zn1130     O1141   2.020       .  S
Zn1131     O1132   1.969       .  S
Zn1131     O1139   2.025       .  S
Zn1131     O1143   2.038       .  S
O1134      C1146   1.274       .  A
O1135      C1147   1.273       .  A
O1136      C1145   1.271       .  A
O1137      C1147   1.271       .  A
O1139      C1148   1.275       .  A
O1140      C1149   1.272       .  A
O1141      C1148   1.275       .  A
O1142      C1149   1.278       .  A
O1143      C1150   1.273       .  A
O1144      C1150   1.276       .  A
C1145      C1201   1.498       .  S
C1146      C1358   1.502       .  S
C1147      C1406   1.463       .  S
C1148      C1553   1.471       .  S
C1149      C1601   1.482       .  S
C1150      C1262   1.499       .  S
Zn1151     O1155   1.946   1_556  S
Zn1151     O1156   2.005   1_556  S
Zn1151     O1708   1.994       .  S
Zn1151     O1167   1.975   1_556  S
Zn1152     O1155   1.974       .  S
Zn1152     O1157   2.049       .  S
Zn1152     O1159   2.045       .  S
Zn1152     O1163   2.039       .  S
Zn1153     O1703   1.960       .  S
Zn1153     O1158   2.018       .  S
Zn1153     O1161   2.015       .  S
Zn1153     O1164   2.035       .  S
Zn1154     O1155   1.978       .  S
Zn1154     O1162   2.016       .  S
Zn1154     O1165   2.034       .  S
Zn1154     O1166   2.054       .  S
O1155     Zn1701   1.960   1_554  S
O1156      C1168   1.272       .  A
O1157      C1717   1.276   1_554  A
O1158      C1170   1.271       .  A
O1159      C1168   1.276       .  A
O1160     Zn1699   2.000       .  S
O1160      C1170   1.269       .  A
O1161      C1169   1.273       .  A
O1162      C1719   1.275   1_554  A
O1163      C1172   1.276       .  A
O1164      C1171   1.275       .  A
O1165      C1172   1.277       .  A
O1166      C1173   1.274       .  A
O1167      C1173   1.271       .  A
C1168      C1374   1.492       .  S
C1169      O1705   1.275       .  A
C1169      C1473   1.480       .  S
C1170      C1633   1.496       .  S
C1171      O1710   1.276       .  A
C1171      C1246   1.485       .  S
C1172      C1441   1.491       .  S
C1173      C1313   1.484       .  S
Zn1174     O3370   1.943       .  S
Zn1174     O3371   1.974       .  S
Zn1174     O1183   2.010       .  S
Zn1174     O1190   2.001       .  S
Zn1175     O1178   1.952       .  S
Zn1175     O1180   2.001       .  S
Zn1175     O1182   1.996       .  S
Zn1175     O1186   1.966       .  S
Zn1176     O1178   1.958       .  S
Zn1176     O1181   2.014       .  S
Zn1176     O1184   2.051       .  S
Zn1176     O1187   2.004       .  S
Zn1177     O3370   1.968       .  S
Zn1177     O1185   2.003       .  S
Zn1177     O3380   2.048       .  S
Zn1177     O1189   2.055       .  S
O1178     Zn3366   1.942   1_455  S
O1178     Zn3369   1.966   1_455  S
O1179     Zn3366   1.982   1_455  S
O1179      C1191   1.270       .  A
O1180      C1192   1.270       .  A
O1181      C3385   1.274   1_455  A
O1182      C1191   1.269       .  A
O1183      C1193   1.270       .  A
O1184      C1192   1.276       .  A
O1185      C1194   1.274       .  A
O1186      C1195   1.267       .  A
O1187      C3386   1.272   1_455  A
O1188     Zn3369   2.031   1_455  S
O1188      C1195   1.274       .  A
O1189      C1196   1.275       .  A
O1190      C1196   1.272       .  A
C1191      C1486   1.456       .  S
C1192      C1425   1.487       .  S
C1193      O3373   1.273       .  A
C1193      C1537   1.478       .  S
C1194      O3379   1.272       .  A
C1194      C1294   1.461       .  S
C1195      C1214   1.471       .  S
C1196      C1614   1.497       .  S
C1197      C1198   1.433       .  A
C1197      C1202   1.408       .  A
C1197      H1204   1.080       .  S
C1198      C1199   1.457   1_565  A
C1200      H1205   1.084       .  S
C1201      C1202   1.412       .  A
C1202      C1203   1.522       .  S
C1203      F1207   1.385       .  S
C1203      F1208   1.383       .  S
C1203      F1209   1.384       .  S
C1206      F1211   1.382       .  S
C1206      F1212   1.388       .  S
C1213      C1214   1.395       .  A
C1213      C1218   1.408       .  A
C1213      H1220   1.083       .  S
C1214      C1215   1.403       .  A
C1215      C3414   1.522       .  S
C1215      C1216   1.404       .  A
C1216      C1217   1.426       .  A
C1216      H1221   1.072       .  S
C1217      C1218   1.451       .  A
C1218      C1219   1.527       .  S
C1219      F1223   1.385       .  S
C1219      F1224   1.363       .  S
C1219      F1225   1.379       .  S
C1222      C3407   1.521       .  S
C1222      F1226   1.381       .  S
C1222      F3419   1.384       .  S
C1222      F1228   1.385       .  S
F1227      C3414   1.384       .  S
C1229      C1230   1.393   1_565  A
C1229      C1234   1.406       .  A
C1229      H3428   1.086   1_455  S
C1230      C1231   1.412       .  A
C1231      C1238   1.522       .  S
C1231      C1232   1.412       .  A
C1232      C1233   1.432   1_545  A
C1232      H1237   1.076       .  S
C1233      C1234   1.451       .  A
C1234      C3427   1.514   1_455  S
C1235      C3426   1.514       .  S
C1235      F1239   1.384       .  S
C1235      F3432   1.348       .  S
C1235      F1241   1.385       .  S
H1236      C3421   1.086       .  S
C1238      F1243   1.384       .  S
C1238      F1244   1.385       .  S
F1240      C3427   1.349       .  S
C1245      C1246   1.390       .  A
C1245      C1250   1.409       .  A
C1245      H1252   1.083       .  S
C1246      C1247   1.408       .  A
C1247      C1254   1.519       .  S
C1247      C1248   1.411       .  A
C1248      C1249   1.431       .  A
C1248      H1253   1.074       .  S
C1249      C1250   1.451       .  A
C1250      C1251   1.526       .  S
C1251      F1255   1.386       .  S
C1251      F1256   1.364       .  S
C1251      F1257   1.379       .  S
C1254      F1806   1.383       .  S
C1254      F1259   1.383       .  S
C1254      F1260   1.385       .  S
F1258      C1802   1.383       .  S
C1261      C1262   1.396       .  A
C1261      C1266   1.414       .  A
C1261      H1268   1.085       .  S
C1262      C1263   1.415       .  A
C1263      C1270   1.516       .  S
C1263      C1264   1.412       .  A
C1264      C1265   1.422       .  A
C1264      H1269   1.078       .  S
C1265      C1266   1.452       .  A
C1266      C1267   1.530       .  S
C1267      F1271   1.387       .  S
C1267      F1272   1.382       .  S
C1267      F1273   1.370       .  S
C1270      F1274   1.381       .  S
C1270      F1275   1.383       .  S
C1270      F1276   1.385       .  S
C1277      C1278   1.430       .  A
C1277      C1282   1.402       .  A
C1277      H1284   1.081       .  S
C1278      C1827   1.463       .  A
C1279      C1286   1.536       .  S
C1279      C1826   1.464   1_554  A
C1279      C1280   1.411       .  A
C1280      C1829   1.386   1_554  A
C1280      H1285   1.084       .  S
C1281      C1828   1.387       .  A
C1281      C1282   1.398       .  A
C1282      C1283   1.518       .  S
C1283      F1287   1.385       .  S
C1283      F1288   1.384       .  S
C1283      F1289   1.382       .  S
C1286      F1290   1.366       .  S
C1286      F1291   1.377       .  S
C1286      F1292   1.387       .  S
C1293      C3486   1.383       .  A
C1293      C1298   1.400       .  A
C1293      H1300   1.088   1_655  S
C1294      C3485   1.381       .  A
C1294      C1295   1.402       .  A
C1295      C1302   1.517       .  S
C1295      C1296   1.410       .  A
C1296      C1297   1.427       .  A
C1296      H1301   1.081       .  S
C1297      C3490   1.468       .  A
C1298      C1299   1.545   1_655  S
C1298      C3489   1.467       .  A
C1299      F1303   1.387   1_455  S
C1299      F1304   1.360   1_455  S
C1299      F1305   1.383       .  S
C1302      F1306   1.383       .  S
C1302      F1307   1.383       .  S
C1302      F1308   1.384       .  S
C1309      C1310   1.442       .  A
C1309      C1314   1.417       .  A
C1309      H1316   1.073       .  S
C1310      C1311   1.458       .  A
C1311      C1318   1.519       .  S
C1311      C1312   1.401       .  A
C1312      C1313   1.383       .  A
C1312      H1317   1.082       .  S
C1313      C1314   1.402       .  A
C1314      C1315   1.518       .  S
C1315      F1319   1.385       .  S
C1315      F1320   1.384   1_554  S
C1315      F1321   1.382       .  S
C1318      F1322   1.363       .  S
C1318      F1323   1.369       .  S
C1318      F1324   1.387       .  S
C1325      C1326   1.436       .  A
C1325      C1330   1.411       .  A
C1325      H1332   1.067       .  S
C1326      C1327   1.457       .  A
C1327      C1334   1.525       .  S
C1327      C1328   1.421       .  A
C1328      C1329   1.397       .  A
C1328      H1333   1.086       .  S
C1329      C1330   1.404       .  A
C1330      C1879   1.520   1_554  S
C1331      C1878   1.520       .  S
C1331      F1335   1.384       .  S
C1331      F1336   1.382       .  S
C1331      F3529   1.384       .  S
C1334      F1338   1.382       .  S
C1334      F1339   1.362       .  S
C1334      F1340   1.386       .  S
F1337      C3523   1.384   1_455  S
C1341      C1346   1.409       .  A
C1341      H1348   1.081       .  S
C1342      C1343   1.465       .  A
C1343      C1350   1.554   1_554  S
C1344      C1893   1.415       .  A
C1344      H1349   1.073       .  S
C1345      C1892   1.415       .  A
C1345      C1894   1.438       .  A
C1346      C1895   1.533       .  S
C1346      C1893   1.437   1_554  A
C1347      C1894   1.533       .  S
C1347      F1351   1.386       .  S
C1347      F1352   1.380       .  S
C1347      F1353   1.375       .  S
C1350      F1354   1.385       .  S
C1350      F1355   1.370   1_556  S
C1350      F1356   1.376       .  S
C1357      C1358   1.394       .  A
C1357      C1362   1.410       .  A
C1357      H1364   1.086       .  S
C1358      C1359   1.410       .  A
C1359      C1360   1.417       .  A
C1360      C1361   1.436       .  A
C1360      H1365   1.074       .  S
C1361      C1362   1.453       .  A
C1362      C1363   1.517       .  S
C1363      F1367   1.383       .  S
C1363      F1368   1.384       .  S
C1363      F1369   1.353       .  S
C1366      F1371   1.382       .  S
C1366      F1372   1.385       .  S
C1373      C1374   1.402       .  A
C1373      C1378   1.417       .  A
C1373      H1380   1.082   1_554  S
C1374      C1375   1.409       .  A
C1375      C1382   1.522       .  S
C1375      C1376   1.406       .  A
C1376      C1377   1.422       .  A
C1376      H1381   1.069       .  S
C1377      C1378   1.453       .  A
C1378      C1379   1.537   1_554  S
C1379      F1931   1.385       .  S
C1379      F1384   1.379   1_556  S
C1379      F1933   1.375       .  S
C1382      F1386   1.384       .  S
C1382      F1387   1.382       .  S
C1382      F1388   1.385       .  S
F1383      C1927   1.386       .  S
F1385      C1927   1.374       .  S
C1389      C1390   1.406       .  A
C1389      C1394   1.417       .  A
C1389      H1396   1.081       .  S
C1391      C1398   1.525   1_554  S
C1392      C1393   1.426       .  A
C1393      C1394   1.452       .  A
C1394      C1395   1.537       .  S
C1395      F1399   1.385       .  S
C1395      F1400   1.380       .  S
C1395      F1401   1.374       .  S
C1398      F1950   1.382       .  S
C1398      F1403   1.383   1_556  S
C1398      F1404   1.385       .  S
F1402      C1946   1.382       .  S
C1405      C1406   1.383       .  A
C1405      C1410   1.408       .  A
C1405      H1412   1.083       .  S
C1406      C1407   1.398       .  A
C1407      C1414   1.518       .  S
C1407      C1408   1.403       .  A
C1408      C1409   1.434       .  A
C1408      H1413   1.081       .  S
C1409      C1410   1.457       .  A
C1410      C1411   1.524       .  S
C1411      F1415   1.359       .  S
C1411      F1416   1.363       .  S
C1411      F1417   1.386       .  S
C1414      F1418   1.384       .  S
C1414      F1419   1.383       .  S
C1414      F1420   1.385       .  S
C1421      C1422   1.431       .  A
C1421      C1426   1.406       .  A
C1421      H1428   1.072       .  S
C1422      C1423   1.450       .  A
C1423      C1430   1.529       .  S
C1423      C1424   1.414       .  A
C1424      C1425   1.399       .  A
C1424      H1429   1.085       .  S
C1425      C1426   1.405       .  A
C1426      C1427   1.523       .  S
C1427      F1431   1.385       .  S
C1427      F1432   1.383       .  S
C1427      F1433   1.383       .  S
C1430      F1434   1.384       .  S
C1430      F1435   1.372       .  S
C1430      F1436   1.383       .  S
C1437      C1438   1.429       .  A
C1437      C1442   1.406       .  A
C1437      H1444   1.071       .  S
C1438      C1439   1.459       .  A
C1439      C1446   1.536       .  S
C1439      C1440   1.417       .  A
C1440      C1441   1.396       .  A
C1440      H1445   1.082       .  S
C1441      C1442   1.407       .  A
C1442      C1443   1.520       .  S
C1443      F1447   1.385       .  S
C1443      F1448   1.382       .  S
C1443      F1449   1.382       .  S
C1446      F1450   1.377       .  S
C1446      F1451   1.364       .  S
C1446      F1452   1.385       .  S
C1453      C2002   1.416   1_554  A
C1453      C1458   1.410       .  A
C1453      H1460   1.082       .  S
C1454      C2001   1.416       .  A
C1454      C1455   1.464       .  A
C1455      C3654   1.538   1_455  S
C1455      C4196   1.423   1_455  A
C1456      C4195   1.424   1_554  A
C1456      C1457   1.411       .  A
C1456      H1461   1.082   1_554  S
C1457      C3650   1.431       .  A
C1458      C1459   1.530       .  S
C1458      C3649   1.433   1_455  A
C1459      F1463   1.379       .  S
C1459      F1464   1.365       .  S
C1459      F1465   1.382       .  S
C1462      C3647   1.539       .  S
C1462      F1466   1.359       .  S
C1462      F1467   1.386       .  S
C1462      F1468   1.384       .  S
C1469      C1470   1.429       .  A
C1469      C1474   1.405       .  A
C1469      H1476   1.067       .  S
C1470      C1471   1.460       .  A
C1471      C1478   1.535       .  S
C1471      C1472   1.419       .  A
C1472      C1473   1.391       .  A
C1472      H1477   1.082       .  S
C1473      C1474   1.399       .  A
C1474      C2023   1.523       .  S
C1475      C2022   1.522       .  S
C1475      F1479   1.383       .  S
C1475      F1480   1.381       .  S
C1475      F2029   1.383   1_554  S
C1478      F1482   1.386       .  S
C1478      F1483   1.373       .  S
C1478      F1484   1.380       .  S
F1481      C2023   1.382       .  S
C1485      C1486   1.384       .  A
C1485      C1490   1.405       .  A
C1485      H1492   1.084       .  S
C1486      C1487   1.398       .  A
C1487      C1494   1.520       .  S
C1487      C1488   1.401       .  A
C1488      C1489   1.424       .  A
C1488      H1493   1.069       .  S
C1489      C1490   1.460       .  A
C1490      C1491   1.533       .  S
C1491      F1495   1.386       .  S
C1491      F1496   1.372       .  S
C1491      F1497   1.379       .  S
C1494      F1498   1.383       .  S
C1494      F1499   1.383       .  S
C1494      F1500   1.385       .  S
C1501      C1502   1.429       .  A
C1501      C1506   1.420       .  A
C1501      H1508   1.078       .  S
C1502      C1503   1.457       .  A
C1503      C1510   1.522   1_455  S
C1503      C1504   1.410       .  A
C1504      C1505   1.385       .  A
C1504      H4249   1.083   1_455  S
C1505      C1506   1.411       .  A
C1506      C1507   1.515       .  S
C1507      F1511   1.385       .  S
C1507      F1512   1.383       .  S
C1507      F1513   1.383       .  S
H1509      C4244   1.083       .  S
C1510      F2062   1.369       .  S
C1510      F3707   1.367       .  S
C1510      F3708   1.386       .  S
F1514      C2058   1.368       .  S
F1515      C3702   1.367       .  S
F1516      C3702   1.386       .  S
C1517      C1518   1.419       .  A
C1517      C2618   1.412       .  A
C1518      C3711   1.455       .  A
C1519      C1526   1.548       .  S
C1519      C3710   1.455   1_455  A
C1519      C1520   1.418       .  A
C1520      H1525   1.076       .  S
C1521      C1522   1.456       .  A
C1522      C3715   1.552       .  S
C1522      C2613   1.414   1_465  A
C1523      C3714   1.553       .  S
C1523      F1527   1.386       .  S
C1523      F3720   1.380       .  S
C1523      F1529   1.367       .  S
C1526      F1530   1.386       .  S
C1526      F1531   1.372       .  S
C1526      F1532   1.375   1_455  S
F1528      C3715   1.380       .  S
C1533      C1534   1.427       .  A
C1533      C1538   1.409       .  A
C1533      H1540   1.070       .  S
C1534      C1535   1.454       .  A
C1535      C3734   1.532       .  S
C1535      C3728   1.411       .  A
C1536      C3727   1.411       .  A
C1536      C3729   1.392       .  A
C1536      H1541   1.083       .  S
C1537      C3728   1.391       .  A
C1537      C1538   1.406       .  A
C1538      C1539   1.521       .  S
C1539      F1543   1.384       .  S
C1539      F1544   1.382       .  S
C1539      F1545   1.384       .  S
C1542      C3727   1.532       .  S
C1542      F1546   1.363       .  S
C1542      F1547   1.386       .  S
C1542      F1548   1.379       .  S
C1549      C1550   1.429       .  A
C1549      C1554   1.407       .  A
C1549      H1556   1.082       .  S
C1550      C1551   1.464       .  A
C1551      C1558   1.538       .  S
C1551      C1552   1.404       .  A
C1552      C1553   1.382       .  A
C1552      H1557   1.088       .  S
C1553      C1554   1.403       .  A
C1554      C1555   1.512       .  S
C1555      F1559   1.385       .  S
C1555      F1560   1.379       .  S
C1555      F1561   1.383       .  S
C1558      F1562   1.380       .  S
C1558      F1563   1.364       .  S
C1558      F1564   1.388       .  S
C1565      C3758   1.391   1_455  A
C1565      C1570   1.414       .  A
C1565      H1572   1.086       .  S
C1566      C3757   1.391       .  A
C1566      C1567   1.406       .  A
C1567      C1574   1.518       .  S
C1567      C1568   1.416       .  A
C1568      C1569   1.436       .  A
C1568      H1573   1.073       .  S
C1569      C3762   1.458       .  A
C1570      C1571   1.516       .  S
C1570      C3761   1.458   1_455  A
C1571      F1575   1.384       .  S
C1571      F1576   1.383       .  S
C1571      F1577   1.354       .  S
C1574      F1578   1.381       .  S
C1574      F1579   1.384       .  S
C1574      F1580   1.385       .  S
C1581      C1582   1.414       .  A
C1581      C1586   1.416       .  A
C1581      H1588   1.075       .  S
C1582      C1583   1.453       .  A
C1583      C1590   1.540       .  S
C1583      C1584   1.423       .  A
C1584      C1585   1.415       .  A
C1584      H1589   1.063       .  S
C1585      C1586   1.451       .  A
C1586      C1587   1.538       .  S
C1587      F1591   1.386       .  S
C1587      F1592   1.375       .  S
C1587      F1593   1.378       .  S
C1590      F1594   1.376       .  S
C1590      F1595   1.372       .  S
C1590      F1596   1.385       .  S
C1597      C1598   1.420       .  A
C1597      C1602   1.404       .  A
C1597      H1604   1.071       .  S
C1598      C1599   1.450       .  A
C1599      C1606   1.528       .  S
C1599      C1600   1.413       .  A
C1600      C1601   1.396       .  A
C1600      H1605   1.086       .  S
C1601      C1602   1.410       .  A
C1602      C1603   1.522       .  S
C1603      F1607   1.385       .  S
C1603      F1608   1.384       .  S
C1603      F1609   1.382       .  S
C1606      F1610   1.383       .  S
C1606      F1611   1.370       .  S
C1606      F1612   1.386       .  S
C1613      C1614   1.397       .  A
C1613      C1618   1.410       .  A
C1613      H1620   1.082       .  S
C1614      C1615   1.411       .  A
C1615      C1622   1.520       .  S
C1615      C1616   1.414       .  A
C1616      C1617   1.430       .  A
C1616      H1621   1.070       .  S
C1617      C1618   1.449       .  A
C1618      C1619   1.526       .  S
C1619      F1623   1.386       .  S
C1619      F1624   1.366       .  S
C1619      F1625   1.381       .  S
C1622      F1626   1.383       .  S
C1622      F1627   1.383       .  S
C1622      F1628   1.385       .  S
C1629      C1630   1.429       .  A
C1629      C1634   1.407       .  A
C1629      H1636   1.068       .  S
C1630      C1631   1.450       .  A
C1631      C1638   1.534       .  S
C1631      C1632   1.416       .  A
C1632      C1633   1.401       .  A
C1632      H1637   1.081       .  S
C1633      C1634   1.410       .  A
C1634      C1635   1.525       .  S
C1635      F1639   1.376       .  S
C1635      F1640   1.383       .  S
C1635      F1641   1.382       .  S
C1638      F1642   1.385       .  S
C1638      F1643   1.374       .  S
C1638      F1644   1.380       .  S
C1645      C2130   1.612       .  S
C1645      C2146   1.599       .  S
C1645      C2165   1.593       .  S
C1645      C2178   1.589       .  S
C1646      C2066   1.582       .  S
C1646      C2082   1.597       .  S
C1646      C2098   1.594       .  S
C1646      C2117   1.636       .  S
C1647      C2002   1.602       .  S
C1647      C2018   1.616       .  S
C1647      C2037   1.566       .  S
C1647      C2050   1.615       .  S
C1648      C1957   1.590       .  S
C1648      C1970   1.593       .  S
C1648      C1986   1.624       .  S
C1648      C2133   1.615       .  S
C1649      C1890   1.613       .  S
C1649      C1909   1.626       .  S
C1649      C1925   1.592       .  S
C1649      C1941   1.605       .  S
C1650      C1845   1.578       .  S
C1650      C1858   1.625       .  S
C1650      C1874   1.618       .  S
C1650      C2005   1.581       .  S
C1651      C1797   1.605       .  S
C1651      C1813   1.608       .  S
C1651      C1826   1.577       .  S
C1651      C1893   1.591       .  S
C1652      C1746   1.596       .  S
C1652      C1765   1.587       .  S
C1652      C1781   1.623       .  S
C1652      C2069   1.588       .  S
Zn1653     O1657   1.968       .  S
Zn1653     O1658   2.005       .  S
Zn1653     O1662   2.020       .  S
Zn1653     O1669   2.012       .  S
Zn1654     O1661   2.011       .  S
Zn1654     O1665   2.038       .  S
Zn1655     O1660   2.009   1_655  S
Zn1655     O1663   2.032   1_655  S
Zn1655     O3858   2.023       .  S
Zn1656     O3849   1.976       .  S
Zn1656     O1664   2.054       .  S
Zn1656     O1668   2.079       .  S
O1657     Zn3848   1.978   1_455  S
O1659      C1671   1.278       .  A
O1660      C1672   1.273   1_565  A
O1661      C1670   1.272       .  A
O1665      C3866   1.277   1_455  A
O1666     Zn3847   2.023       .  S
O1666      C1673   1.276       .  A
O1667      C1674   1.278       .  A
O1668      C1675   1.280       .  A
O1669      C3867   1.272   1_455  A
C1670      C1829   1.464       .  S
C1671      C2053   1.490       .  S
C1672      C1778   1.493       .  S
C1673      C1938   1.508       .  S
C1674      O3857   1.278       .  A
C1674      C2114   1.494       .  S
C1675      O3861   1.272       .  A
C1675      C1877   1.495       .  S
Zn1676     O1680   1.953       .  S
Zn1676     O1681   1.993       .  S
Zn1676     O1685   1.994       .  S
Zn1676     O1692   2.052       .  S
Zn1677     O1682   2.025       .  S
Zn1677     O1684   2.023       .  S
Zn1677     O1688   2.000       .  S
Zn1678     O1680   1.963       .  S
Zn1678     O1683   2.009       .  S
Zn1678     O1686   2.059       .  S
Zn1678     O1689   2.021       .  S
Zn1679     O1680   1.968       .  S
Zn1679     O1687   2.030       .  S
Zn1679     O1691   2.036       .  S
O1682      C1694   1.274       .  A
O1683      C1695   1.273       .  A
O1684      C1693   1.271       .  A
O1685      C1695   1.270       .  A
O1687      C1696   1.275       .  A
O1688      C1697   1.272       .  A
O1689      C1696   1.275       .  A
O1690      C1697   1.278       .  A
O1691      C1698   1.273       .  A
O1692      C1698   1.276       .  A
C1693      C1749   1.500       .  S
C1694      C1906   1.503       .  S
C1695      C1954   1.461       .  S
C1696      C2101   1.473       .  S
C1697      C2149   1.482       .  S
C1698      C1810   1.498       .  S
Zn1699     O1703   1.945       .  S
Zn1699     O1704   2.003       .  S
Zn1699     O1715   1.974       .  S
Zn1700     O1703   1.976       .  S
Zn1700     O1705   2.044       .  S
Zn1700     O1707   2.050       .  S
Zn1700     O1711   2.040       .  S
Zn1701     O1706   2.019       .  S
Zn1701     O1709   2.018       .  S
Zn1701     O1712   2.037       .  S
Zn1702     O1703   1.980       .  S
Zn1702     O1710   2.015       .  S
Zn1702     O1713   2.043       .  S
Zn1702     O1714   2.064       .  S
O1704      C1716   1.272       .  A
O1706      C1718   1.272       .  A
O1707      C1716   1.277       .  A
O1708      C1718   1.269       .  A
O1709      C1717   1.274       .  A
O1711      C1720   1.276       .  A
O1712      C1719   1.275       .  A
O1713      C1720   1.278       .  A
O1714      C1721   1.275       .  A
O1715      C1721   1.271       .  A
C1716      C1922   1.495       .  S
C1717      C2021   1.482       .  S
C1718      C2181   1.492       .  S
C1719      C1794   1.486       .  S
C1720      C1989   1.490       .  S
C1721      C1861   1.486       .  S
Zn1722     O3918   1.945       .  S
Zn1722     O3919   1.984       .  S
Zn1722     O1731   2.016       .  S
Zn1722     O1738   2.002       .  S
Zn1723     O1726   1.950       .  S
Zn1723     O1728   1.990       .  S
Zn1723     O1730   1.989       .  S
Zn1723     O1734   1.968       .  S
Zn1724     O1726   1.957       .  S
Zn1724     O1729   2.022       .  S
Zn1724     O1732   2.044       .  S
Zn1724     O1735   2.007       .  S
Zn1725     O3918   1.970       .  S
Zn1725     O1733   1.996       .  S
Zn1725     O3928   2.038       .  S
Zn1725     O1737   2.041       .  S
O1726     Zn3914   1.942   1_455  S
O1726     Zn3917   1.968   1_455  S
O1727     Zn3914   1.977   1_455  S
O1727      C1739   1.269       .  A
O1728      C1740   1.269       .  A
O1729      C3933   1.275   1_455  A
O1730      C1739   1.268       .  A
O1731      C1741   1.271       .  A
O1732      C1740   1.276       .  A
O1733      C1742   1.273       .  A
O1734      C1743   1.267       .  A
O1735      C3934   1.273   1_455  A
O1736     Zn3917   2.038   1_455  S
O1736      C1743   1.275       .  A
O1737      C1744   1.273       .  A
O1738      C1744   1.273       .  A
C1739      C2034   1.453       .  S
C1740      C1973   1.478       .  S
C1741      O3921   1.274       .  A
C1741      C2085   1.482       .  S
C1742      O3927   1.272       .  A
C1742      C1842   1.461       .  S
C1743      C1762   1.474       .  S
C1744      C2162   1.494       .  S
C1745      C1746   1.432       .  A
C1745      C1750   1.408       .  A
C1745      H1752   1.080       .  S
C1746      C1747   1.457   1_565  A
C1748      H1753   1.084       .  S
C1749      C1750   1.413       .  A
C1750      C1751   1.522       .  S
C1751      F1755   1.385       .  S
C1751      F1756   1.383       .  S
C1751      F1757   1.384       .  S
C1754      F1759   1.382       .  S
C1754      F1760   1.388       .  S
C1761      C1762   1.396       .  A
C1761      C1766   1.409       .  A
C1761      H1768   1.083       .  S
C1762      C1763   1.403       .  A
C1763      C3962   1.521       .  S
C1763      C1764   1.405       .  A
C1764      C1765   1.426       .  A
C1764      H1769   1.072       .  S
C1765      C1766   1.451       .  A
C1766      C1767   1.527       .  S
C1767      F1771   1.385       .  S
C1767      F1772   1.363       .  S
C1767      F1773   1.379       .  S
C1770      C3955   1.521       .  S
C1770      F1774   1.381       .  S
C1770      F3967   1.384       .  S
C1770      F1776   1.385       .  S
F1775      C3962   1.384       .  S
C1777      C1778   1.393   1_565  A
C1777      C1782   1.406       .  A
C1777      H3976   1.086   1_455  S
C1778      C1779   1.412       .  A
C1779      C1786   1.522       .  S
C1779      C1780   1.412       .  A
C1780      C1781   1.432   1_545  A
C1780      H1785   1.075       .  S
C1781      C1782   1.451       .  A
C1782      C3975   1.515   1_455  S
C1783      C3974   1.514       .  S
C1783      F1787   1.385       .  S
C1783      F3980   1.347       .  S
C1783      F1789   1.384       .  S
H1784      C3969   1.086       .  S
C1786      F1791   1.384       .  S
C1786      F1792   1.385       .  S
F1788      C3975   1.349       .  S
C1793      C1794   1.391   1_554  A
C1793      C1798   1.410       .  A
C1793      H1800   1.083       .  S
C1794      C1795   1.408       .  A
C1795      C1802   1.519       .  S
C1795      C1796   1.410       .  A
C1796      C1797   1.430       .  A
C1796      H1801   1.073       .  S
C1797      C1798   1.452   1_556  A
C1798      C1799   1.526       .  S
C1799      F1803   1.386       .  S
C1799      F1804   1.364       .  S
C1799      F1805   1.379       .  S
C1802      F1807   1.383       .  S
C1802      F1808   1.385       .  S
C1809      C1810   1.395       .  A
C1809      C1814   1.414       .  A
C1809      H1816   1.085       .  S
C1810      C1811   1.415       .  A
C1811      C1818   1.517       .  S
C1811      C1812   1.412       .  A
C1812      C1813   1.422       .  A
C1812      H1817   1.077       .  S
C1813      C1814   1.453       .  A
C1814      C1815   1.531       .  S
C1815      F1819   1.387       .  S
C1815      F1820   1.382       .  S
C1815      F1821   1.370       .  S
C1818      F1822   1.382       .  S
C1818      F1823   1.382       .  S
C1818      F1824   1.385       .  S
C1825      C1826   1.429       .  A
C1825      C1830   1.401       .  A
C1825      H1832   1.081       .  S
C1827      C1834   1.536       .  S
C1827      C1828   1.411       .  A
C1828      H1833   1.084       .  S
C1829      C1830   1.396       .  A
C1830      C1831   1.517       .  S
C1831      F1835   1.385       .  S
C1831      F1836   1.384       .  S
C1831      F1837   1.383       .  S
C1834      F1838   1.367       .  S
C1834      F1839   1.377       .  S
C1834      F1840   1.387       .  S
C1841      C4034   1.383       .  A
C1841      C1846   1.401       .  A
C1841      H1848   1.087   1_655  S
C1842      C4033   1.383       .  A
C1842      C1843   1.402       .  A
C1843      C1850   1.517       .  S
C1843      C1844   1.409       .  A
C1844      C1845   1.427       .  A
C1844      H1849   1.081       .  S
C1845      C4038   1.466       .  A
C1846      C1847   1.544   1_655  S
C1846      C4037   1.467       .  A
C1847      F1851   1.387   1_455  S
C1847      F1852   1.360   1_455  S
C1847      F1853   1.383       .  S
C1850      F1854   1.383       .  S
C1850      F1855   1.383       .  S
C1850      F1856   1.385       .  S
C1857      C1858   1.442       .  A
C1857      C1862   1.417       .  A
C1857      H1864   1.072       .  S
C1858      C1859   1.457       .  A
C1859      C1866   1.520       .  S
C1859      C1860   1.401       .  A
C1860      C1861   1.383       .  A
C1860      H1865   1.083       .  S
C1861      C1862   1.402       .  A
C1862      C1863   1.518       .  S
C1863      F1867   1.385       .  S
C1863      F1868   1.384       .  S
C1863      F1869   1.382       .  S
C1866      F1870   1.364       .  S
C1866      F1871   1.370       .  S
C1866      F1872   1.387       .  S
C1873      C1874   1.435       .  A
C1873      C1878   1.411       .  A
C1873      H1880   1.068       .  S
C1874      C1875   1.456       .  A
C1875      C1882   1.524       .  S
C1875      C1876   1.419       .  A
C1876      C1877   1.396       .  A
C1876      H1881   1.086       .  S
C1877      C1878   1.404       .  A
C1879      F1883   1.384       .  S
C1879      F1884   1.382       .  S
C1879      F4077   1.384       .  S
C1882      F1886   1.382       .  S
C1882      F1887   1.362       .  S
C1882      F1888   1.386       .  S
F1885      C4071   1.384   1_455  S
C1889      C1894   1.411       .  A
C1889      H1896   1.082       .  S
C1890      C1891   1.462       .  A
C1891      C1898   1.551       .  S
C1892      H1897   1.074       .  S
C1895      F1899   1.386       .  S
C1895      F1900   1.380       .  S
C1895      F1901   1.375   1_554  S
C1898      F1902   1.385       .  S
C1898      F1903   1.371       .  S
C1898      F1904   1.375       .  S
C1905      C1906   1.395       .  A
C1905      C1910   1.411       .  A
C1905      H1912   1.086       .  S
C1906      C1907   1.411       .  A
C1907      C1908   1.415       .  A
C1908      C1909   1.433       .  A
C1908      H1913   1.074   1_565  S
C1909      C1910   1.454       .  A
C1910      C1911   1.518       .  S
C1911      F1915   1.383       .  S
C1911      F1916   1.384       .  S
C1911      F1917   1.355       .  S
C1914      F1919   1.382       .  S
C1914      F1920   1.385       .  S
C1921      C1922   1.402       .  A
C1921      C1926   1.418       .  A
C1921      H1928   1.081       .  S
C1922      C1923   1.408       .  A
C1923      C1930   1.523       .  S
C1923      C1924   1.408       .  A
C1924      C1925   1.424       .  A
C1924      H1929   1.067       .  S
C1925      C1926   1.453       .  A
C1926      C1927   1.536       .  S
C1927      F1932   1.378       .  S
C1930      F1934   1.384       .  S
C1930      F1935   1.382       .  S
C1930      F1936   1.385       .  S
C1937      C1938   1.406       .  A
C1937      C1942   1.419       .  A
C1937      H1944   1.082       .  S
C1939      C1946   1.525       .  S
C1940      C1941   1.428       .  A
C1941      C1942   1.451       .  A
C1942      C1943   1.534       .  S
C1943      F1947   1.386       .  S
C1943      F1948   1.382       .  S
C1943      F1949   1.370       .  S
C1946      F1951   1.383       .  S
C1946      F1952   1.385       .  S
C1953      C1954   1.384       .  A
C1953      C1958   1.407       .  A
C1953      H1960   1.083       .  S
C1954      C1955   1.398       .  A
C1955      C1962   1.518       .  S
C1955      C1956   1.402       .  A
C1956      C1957   1.433       .  A
C1956      H1961   1.081       .  S
C1957      C1958   1.453       .  A
C1958      C1959   1.518       .  S
C1959      F1963   1.361       .  S
C1959      F1964   1.362       .  S
C1959      F1965   1.386       .  S
C1962      F1966   1.384       .  S
C1962      F1967   1.383       .  S
C1962      F1968   1.385       .  S
C1969      C1970   1.431       .  A
C1969      C1974   1.403       .  A
C1969      H1976   1.074       .  S
C1970      C1971   1.448       .  A
C1971      C1978   1.528       .  S
C1971      C1972   1.412       .  A
C1972      C1973   1.398       .  A
C1972      H1977   1.085       .  S
C1973      C1974   1.403       .  A
C1974      C1975   1.524       .  S
C1975      F1979   1.385       .  S
C1975      F1980   1.382       .  S
C1975      F1981   1.384       .  S
C1978      F1982   1.384       .  S
C1978      F1983   1.372       .  S
C1978      F1984   1.384       .  S
C1985      C1986   1.429       .  A
C1985      C1990   1.409       .  A
C1985      H1992   1.073       .  S
C1986      C1987   1.455       .  A
C1987      C1994   1.531       .  S
C1987      C1988   1.415       .  A
C1988      C1989   1.395       .  A
C1988      H1993   1.082       .  S
C1989      C1990   1.409       .  A
C1990      C1991   1.520       .  S
C1991      F1995   1.385       .  S
C1991      F1996   1.384       .  S
C1991      F1997   1.382       .  S
C1994      F1998   1.379       .  S
C1994      F1999   1.364       .  S
C1994      F2000   1.385       .  S
C2001      C2006   1.410       .  A
C2001      H2008   1.082       .  S
C2002      C2003   1.465       .  A
C2003      C4202   1.538   1_455  S
C2003      C3648   1.424   1_456  A
C2004      C3647   1.423       .  A
C2004      C2005   1.411       .  A
C2004      H2009   1.082       .  S
C2005      C4198   1.432       .  A
C2006      C2007   1.529       .  S
C2006      C4197   1.431   1_455  A
C2007      F2011   1.380       .  S
C2007      F2012   1.364       .  S
C2007      F2013   1.382       .  S
C2010      C4195   1.537       .  S
C2010      F2014   1.359       .  S
C2010      F2015   1.386       .  S
C2010      F2016   1.383       .  S
C2017      C2018   1.427       .  A
C2017      C2022   1.405   1_556  A
C2017      H2024   1.067       .  S
C2018      C2019   1.460       .  A
C2019      C2026   1.535       .  S
C2019      C2020   1.420       .  A
C2020      C2021   1.392       .  A
C2020      H2025   1.082       .  S
C2021      C2022   1.400   1_556  A
C2023      F2027   1.383       .  S
C2023      F2028   1.382       .  S
C2026      F2030   1.385       .  S
C2026      F2031   1.373       .  S
C2026      F2032   1.380       .  S
C2033      C2034   1.383       .  A
C2033      C2038   1.404       .  A
C2033      H2040   1.084       .  S
C2034      C2035   1.397       .  A
C2035      C2042   1.520       .  S
C2035      C2036   1.399       .  A
C2036      C2037   1.424       .  A
C2036      H2041   1.069       .  S
C2037      C2038   1.461       .  A
C2038      C2039   1.532       .  S
C2039      F2043   1.386       .  S
C2039      F2044   1.372       .  S
C2039      F2045   1.380       .  S
C2042      F2046   1.383       .  S
C2042      F2047   1.383       .  S
C2042      F2048   1.385       .  S
C2049      C2050   1.428   1_554  A
C2049      C2054   1.419       .  A
C2049      H2056   1.078       .  S
C2050      C2051   1.457       .  A
C2051      C2058   1.523   1_455  S
C2051      C2052   1.412       .  A
C2052      C2053   1.386       .  A
C2052      H3701   1.083   1_455  S
C2053      C2054   1.410   1_556  A
C2054      C2055   1.515       .  S
C2055      F2059   1.385       .  S
C2055      F2060   1.383       .  S
C2055      F2061   1.383       .  S
H2057      C3696   1.083       .  S
C2058      F4255   1.367       .  S
C2058      F4256   1.386       .  S
F2063      C4250   1.367       .  S
F2064      C4250   1.386       .  S
C2065      C2066   1.420       .  A
C2065      C3166   1.414       .  A
C2066      C4259   1.455       .  A
C2067      C2074   1.546       .  S
C2067      C4258   1.454   1_455  A
C2067      C2068   1.417       .  A
C2068      H2073   1.075       .  S
C2069      C2070   1.457       .  A
C2070      C4263   1.551   1_455  S
C2070      C3161   1.415   1_465  A
C2071      C4262   1.553       .  S
C2071      F2075   1.386       .  S
C2071      F4268   1.379       .  S
C2071      F2077   1.370       .  S
C2074      F2078   1.386       .  S
C2074      F2079   1.373       .  S
C2074      F2080   1.375   1_455  S
F2076      C4263   1.380   1_455  S
C2081      C2082   1.427       .  A
C2081      C2086   1.410       .  A
C2081      H2088   1.071       .  S
C2082      C2083   1.453       .  A
C2083      C4282   1.530       .  S
C2083      C4276   1.411       .  A
C2084      C4275   1.411       .  A
C2084      C4277   1.392       .  A
C2084      H2089   1.083       .  S
C2085      C4276   1.392       .  A
C2085      C2086   1.408       .  A
C2086      C2087   1.521       .  S
C2087      F2091   1.385       .  S
C2087      F2092   1.383       .  S
C2087      F2093   1.383       .  S
C2090      C4275   1.532       .  S
C2090      F2094   1.363       .  S
C2090      F2095   1.386       .  S
C2090      F2096   1.378       .  S
C2097      C2098   1.430       .  A
C2097      C2102   1.408       .  A
C2097      H2104   1.082       .  S
C2098      C2099   1.464       .  A
C2099      C2106   1.539       .  S
C2099      C2100   1.406       .  A
C2100      C2101   1.382       .  A
C2100      H2105   1.088       .  S
C2101      C2102   1.404       .  A
C2102      C2103   1.514       .  S
C2103      F2107   1.385       .  S
C2103      F2108   1.380       .  S
C2103      F2109   1.383       .  S
C2106      F2110   1.380       .  S
C2106      F2111   1.364       .  S
C2106      F2112   1.387       .  S
C2113      C4306   1.390   1_455  A
C2113      C2118   1.413       .  A
C2113      H2120   1.086       .  S
C2114      C4305   1.389       .  A
C2114      C2115   1.406       .  A
C2115      C2122   1.518       .  S
C2115      C2116   1.416       .  A
C2116      C2117   1.436       .  A
C2116      H2121   1.073       .  S
C2117      C4310   1.458       .  A
C2118      C2119   1.515       .  S
C2118      C4309   1.457   1_455  A
C2119      F2123   1.384       .  S
C2119      F2124   1.384       .  S
C2119      F2125   1.353       .  S
C2122      F2126   1.382       .  S
C2122      F2127   1.383       .  S
C2122      F2128   1.384       .  S
C2129      C2130   1.411       .  A
C2129      C2134   1.416       .  A
C2129      H2136   1.072       .  S
C2130      C2131   1.451       .  A
C2131      C2138   1.539       .  S
C2131      C2132   1.425       .  A
C2132      C2133   1.417       .  A
C2132      H2137   1.064       .  S
C2133      C2134   1.457       .  A
C2134      C2135   1.541       .  S
C2135      F2139   1.387       .  S
C2135      F2140   1.373       .  S
C2135      F2141   1.377       .  S
C2138      F2142   1.376       .  S
C2138      F2143   1.373       .  S
C2138      F2144   1.385       .  S
C2145      C2146   1.420       .  A
C2145      C2150   1.405       .  A
C2145      H2152   1.069       .  S
C2146      C2147   1.452       .  A
C2147      C2154   1.530       .  S
C2147      C2148   1.413       .  A
C2148      C2149   1.395       .  A
C2148      H2153   1.086       .  S
C2149      C2150   1.410       .  A
C2150      C2151   1.522       .  S
C2151      F2155   1.384       .  S
C2151      F2156   1.384       .  S
C2151      F2157   1.382       .  S
C2154      F2158   1.383       .  S
C2154      F2159   1.370       .  S
C2154      F2160   1.386       .  S
C2161      C2162   1.395       .  A
C2161      C2166   1.408       .  A
C2161      H2168   1.082       .  S
C2162      C2163   1.410       .  A
C2163      C2170   1.520       .  S
C2163      C2164   1.412       .  A
C2164      C2165   1.429       .  A
C2164      H2169   1.069       .  S
C2165      C2166   1.450       .  A
C2166      C2167   1.524       .  S
C2167      F2171   1.386       .  S
C2167      F2172   1.362       .  S
C2167      F2173   1.381       .  S
C2170      F2174   1.383       .  S
C2170      F2175   1.383       .  S
C2170      F2176   1.385       .  S
C2177      C2178   1.429       .  A
C2177      C2182   1.406       .  A
C2177      H2184   1.069       .  S
C2178      C2179   1.450       .  A
C2179      C2186   1.535       .  S
C2179      C2180   1.414       .  A
C2180      C2181   1.400       .  A
C2180      H2185   1.081       .  S
C2181      C2182   1.408       .  A
C2182      C2183   1.523       .  S
C2183      F2187   1.376       .  S
C2183      F2188   1.383       .  S
C2183      F2189   1.383       .  S
C2186      F2190   1.385       .  S
C2186      F2191   1.374       .  S
C2186      F2192   1.380       .  S
C2193      C2678   1.610       .  S
C2193      C2694   1.599       .  S
C2193      C2713   1.592       .  S
C2193      C2726   1.591       .  S
C2194      C2614   1.586       .  S
C2194      C2630   1.602       .  S
C2194      C2646   1.593       .  S
C2194      C2665   1.638       .  S
C2195      C2550   1.599       .  S
C2195      C2566   1.618       .  S
C2195      C2585   1.562       .  S
C2195      C2598   1.613       .  S
C2196      C2505   1.591       .  S
C2196      C2518   1.599       .  S
C2196      C2534   1.625       .  S
C2196      C2681   1.608       .  S
C2197      C2438   1.610       .  S
C2197      C2457   1.625       .  S
C2197      C2473   1.580       .  S
C2197      C2489   1.604       .  S
C2198      C2393   1.578       .  S
C2198      C2406   1.627       .  S
C2198      C2422   1.621       .  S
C2198      C2553   1.582       .  S
C2199      C2345   1.607       .  S
C2199      C2361   1.608       .  S
C2199      C2374   1.575       .  S
C2199      C2441   1.591       .  S
C2200      C2294   1.594       .  S
C2200      C2313   1.588       .  S
C2200      C2329   1.622       .  S
C2200      C2617   1.584       .  S
Zn2201     O2205   1.971       .  S
Zn2201     O2206   1.997       .  S
Zn2201     O2210   2.024       .  S
Zn2201     O2217   2.015       .  S
Zn2202     O2753   1.975       .  S
Zn2202     O3303   2.068   1_545  S
Zn2202     O2209   2.014       .  S
Zn2202     O2213   2.041       .  S
Zn2203     O3301   1.967       .  S
Zn2203     O2208   2.004       .  S
Zn2203     O2211   2.029       .  S
Zn2204     O2212   2.051   1_556  S
Zn2204     O2763   2.067       .  S
Zn2204     O2216   2.083   1_556  S
O2205     Zn2750   1.973   1_554  S
O2205     Zn3299   1.964   1_545  S
O2206      C2766   1.271   1_554  A
O2207     Zn3298   2.064       .  S
O2207      C2219   1.278       .  A
O2208      C2220   1.273       .  A
O2209      C2218   1.273       .  A
O2210      C3316   1.271       .  A
O2211      C2767   1.273       .  A
O2212      C3317   1.278   1_545  A
O2214      C2221   1.276       .  A
O2215     Zn2752   2.072       .  S
O2215      C2222   1.280       .  A
O2216      C2223   1.280       .  A
C2218      O2754   1.272       .  A
C2218      C2377   1.465       .  S
C2219      O2759   1.272       .  A
C2219      C2601   1.487       .  S
C2220      O3306   1.270       .  A
C2220      C2326   1.491       .  S
C2221      O3308   1.277       .  A
C2221      C2486   1.507       .  S
C2222      C2662   1.499       .  S
C2223      C2425   1.500       .  S
Zn2224     O2228   1.951       .  S
Zn2224     O2229   1.988       .  S
Zn2224     O2233   2.002       .  S
Zn2224     O2240   2.049       .  S
Zn2225     O3324   1.957       .  S
Zn2225     O2230   2.018       .  S
Zn2225     O2232   2.024       .  S
Zn2225     O2236   1.996       .  S
Zn2226     O2228   1.962       .  S
Zn2226     O2231   2.011       .  S
Zn2226     O2234   2.056       .  S
Zn2226     O2237   2.021       .  S
Zn2227     O2228   1.968   1_565  S
Zn2227     O2235   2.030   1_565  S
Zn2227     O3334   2.044       .  S
Zn2227     O2239   2.040   1_565  S
O2228     Zn3321   1.958   1_545  S
O2229      C3337   1.273   1_545  A
O2230      C2242   1.274       .  A
O2231      C2243   1.273       .  A
O2232      C2241   1.270       .  A
O2233      C2243   1.271       .  A
O2234      C3338   1.275   1_545  A
O2235      C2244   1.275       .  A
O2236      C2245   1.272       .  A
O2237      C2244   1.275       .  A
O2238     Zn3323   2.046       .  S
O2238      C2245   1.279       .  A
O2239      C2246   1.274       .  A
O2240      C2246   1.276       .  A
C2241      O3325   1.273       .  A
C2241      C2297   1.499       .  S
C2242      O3330   1.275       .  A
C2242      C2454   1.502       .  S
C2243      C2502   1.464       .  S
C2244      C2649   1.473       .  S
C2245      C2697   1.481       .  S
C2246      C2358   1.497       .  S
Zn2247     O2251   1.949   1_556  S
Zn2247     O2252   2.002   1_556  S
Zn2247     O2804   2.002       .  S
Zn2247     O2263   1.981   1_556  S
Zn2248     O2251   1.975       .  S
Zn2248     O2253   2.048       .  S
Zn2248     O2255   2.039       .  S
Zn2248     O2259   2.036       .  S
Zn2249     O2799   1.962       .  S
Zn2249     O2254   2.024       .  S
Zn2249     O2257   2.025       .  S
Zn2249     O2260   2.042       .  S
Zn2250     O2251   1.979       .  S
Zn2250     O2258   2.020       .  S
Zn2250     O2261   2.040       .  S
Zn2250     O2262   2.064       .  S
O2251     Zn2797   1.959   1_554  S
O2252      C2264   1.272       .  A
O2253      C2813   1.275       .  A
O2254      C2266   1.273       .  A
O2255      C2264   1.276       .  A
O2256     Zn2795   1.998       .  S
O2256      C2266   1.270       .  A
O2257      C2265   1.274       .  A
O2258      C2815   1.276   1_554  A
O2259      C2268   1.275       .  A
O2260      C2267   1.276       .  A
O2261      C2268   1.278       .  A
O2262      C2269   1.275       .  A
O2263      C2269   1.271       .  A
C2264      C2470   1.491       .  S
C2265      O2801   1.276       .  A
C2265      C2569   1.484       .  S
C2266      C2729   1.493       .  S
C2267      O2806   1.275       .  A
C2267      C2342   1.487       .  S
C2268      C2537   1.492       .  S
C2269      C2409   1.488       .  S
Zn2270     O2279   2.024       .  S
Zn2270     O2286   1.998       .  S
Zn2271     O2274   1.955       .  S
Zn2271     O2276   2.006       .  S
Zn2271     O2278   1.995       .  S
Zn2271     O2282   1.977       .  S
Zn2272     O2274   1.958       .  S
Zn2272     O2277   2.015       .  S
Zn2272     O2280   2.042       .  S
Zn2272     O2283   1.995       .  S
Zn2273     O2281   2.004       .  S
Zn2273     O2285   2.052       .  S
O2275      C2287   1.270       .  A
O2276      C2288   1.271       .  A
O2278      C2287   1.270       .  A
O2279      C2289   1.272       .  A
O2280      C2288   1.275       .  A
O2281      C2290   1.274       .  A
O2282      C2291   1.268       .  A
O2284      C2291   1.276       .  A
O2285      C2292   1.275       .  A
O2286      C2292   1.273       .  A
C2287      C2582   1.455       .  S
C2288      C2521   1.485       .  S
C2289      C2633   1.484       .  S
C2290      C2390   1.461       .  S
C2291      C2310   1.479       .  S
C2292      C2710   1.495       .  S
C2293      C2294   1.432       .  A
C2293      C2298   1.408       .  A
C2293      H2300   1.080       .  S
C2294      C2295   1.459       .  A
C2295      C3398   1.539       .  S
C2295      C3392   1.406       .  A
C2296      C3391   1.407       .  A
C2296      C3393   1.396   1_545  A
C2296      H2301   1.082       .  S
C2297      C3392   1.396       .  A
C2297      C2298   1.412       .  A
C2298      C2299   1.522       .  S
C2299      F2303   1.385       .  S
C2299      F2304   1.383       .  S
C2299      F2305   1.384       .  S
C2302      C3391   1.536       .  S
C2302      F3402   1.365       .  S
C2302      F2307   1.380       .  S
C2302      F2308   1.388       .  S
F2306      C3398   1.363       .  S
C2309      C2310   1.397       .  A
C2309      C2314   1.410       .  A
C2309      H2316   1.082       .  S
C2310      C2311   1.405       .  A
C2311      C2312   1.406       .  A
C2312      C2313   1.426       .  A
C2312      H2317   1.072       .  S
C2313      C2314   1.450       .  A
C2314      C2315   1.527       .  S
C2315      F2319   1.385       .  S
C2315      F2320   1.363       .  S
C2315      F2321   1.379       .  S
C2318      F2322   1.381       .  S
C2318      F2324   1.385       .  S
C2325      C2326   1.392       .  A
C2325      C2330   1.405       .  A
C2326      C2327   1.411       .  A
C2327      C2334   1.522       .  S
C2327      C2328   1.411       .  A
C2328      C2329   1.432       .  A
C2328      H2333   1.076       .  S
C2329      C2330   1.452       .  A
C2331      F2335   1.385       .  S
C2331      F2337   1.384       .  S
C2334      F3434   1.383       .  S
C2334      F2339   1.384       .  S
C2334      F2340   1.384       .  S
F2338      C3430   1.383       .  S
C2341      C2342   1.390       .  A
C2341      C2346   1.410       .  A
C2341      H2348   1.083       .  S
C2342      C2343   1.407       .  A
C2343      C2350   1.518       .  S
C2343      C2344   1.412       .  A
C2344      C2345   1.431       .  A
C2344      H2349   1.073       .  S
C2345      C2346   1.453       .  A
C2346      C2347   1.526       .  S
C2347      F2351   1.386       .  S
C2347      F2352   1.364       .  S
C2347      F2353   1.379       .  S
C2350      F2902   1.383       .  S
C2350      F2355   1.383       .  S
C2350      F2356   1.385       .  S
F2354      C2898   1.383       .  S
C2357      C2358   1.395       .  A
C2357      C2362   1.413       .  A
C2357      H2364   1.086       .  S
C2358      C2359   1.415       .  A
C2359      C2366   1.516       .  S
C2359      C2360   1.412       .  A
C2360      C2361   1.422       .  A
C2360      H2365   1.078       .  S
C2361      C2362   1.453       .  A
C2362      C2363   1.531   1_545  S
C2363      F2367   1.387       .  S
C2363      F2368   1.382   1_565  S
C2363      F2369   1.369       .  S
C2366      F2370   1.381       .  S
C2366      F2371   1.383       .  S
C2366      F2372   1.384       .  S
C2373      C2374   1.429       .  A
C2373      C2378   1.401       .  A
C2373      H2380   1.081       .  S
C2374      C2923   1.464       .  A
C2375      C2382   1.535   1_545  S
C2375      C2922   1.463   1_554  A
C2375      C2376   1.411       .  A
C2376      C2925   1.387   1_554  A
C2376      H2381   1.085       .  S
C2377      C2924   1.387       .  A
C2377      C2378   1.398       .  A
C2378      C2379   1.518       .  S
C2379      F2383   1.385       .  S
C2379      F2384   1.384       .  S
C2379      F2385   1.383       .  S
C2382      F2386   1.366   1_565  S
C2382      F2387   1.377       .  S
C2382      F2388   1.387       .  S
C2389      C2394   1.399       .  A
C2389      H2396   1.088       .  S
C2390      C2391   1.403       .  A
C2391      C2398   1.517       .  S
C2391      C2392   1.409       .  A
C2392      C2393   1.427       .  A
C2392      H2397   1.081       .  S
C2394      C2395   1.543       .  S
C2395      F2399   1.387       .  S
C2395      F2400   1.360       .  S
C2395      F2401   1.383       .  S
C2398      F2402   1.383       .  S
C2398      F2403   1.383       .  S
C2398      F2404   1.385       .  S
C2405      C2406   1.441       .  A
C2405      C2410   1.418       .  A
C2405      H2412   1.072       .  S
C2406      C2407   1.458       .  A
C2407      C2414   1.520       .  S
C2407      C2408   1.403       .  A
C2408      C2409   1.384       .  A
C2408      H2413   1.082       .  S
C2409      C2410   1.403       .  A
C2410      C2411   1.518       .  S
C2411      F2415   1.385       .  S
C2411      F2416   1.384   1_554  S
C2411      F2417   1.382       .  S
C2414      F2418   1.363       .  S
C2414      F2419   1.370       .  S
C2414      F2420   1.387       .  S
C2421      C2422   1.436       .  A
C2421      C2426   1.412       .  A
C2421      H2428   1.068       .  S
C2422      C2423   1.458       .  A
C2423      C2430   1.526   1_655  S
C2423      C2424   1.422       .  A
C2424      C2425   1.397       .  A
C2424      H2429   1.086   1_655  S
C2425      C2426   1.405       .  A
C2426      C2975   1.520   1_554  S
C2427      C2974   1.520       .  S
C2427      F2431   1.384       .  S
C2427      F2432   1.382       .  S
C2430      F2434   1.382   1_455  S
C2430      F2435   1.361       .  S
C2430      F2436   1.386       .  S
C2437      C3534   1.424   1_545  A
C2437      C2442   1.409       .  A
C2437      H2444   1.081       .  S
C2438      C3533   1.423       .  A
C2438      C2439   1.464       .  A
C2439      C2446   1.554   1_554  S
C2439      C3536   1.422   1_554  A
C2440      C3535   1.421   1_556  A
C2440      C2989   1.416   1_565  A
C2440      H2445   1.073       .  S
C2441      C2988   1.416   1_545  A
C2441      C2990   1.437       .  A
C2442      C2991   1.534       .  S
C2442      C2989   1.437   1_554  A
C2443      C2990   1.533       .  S
C2443      F2447   1.387       .  S
C2443      F2448   1.380       .  S
C2443      F2449   1.375       .  S
C2446      F2450   1.385       .  S
C2446      F2451   1.370   1_556  S
C2446      F2452   1.377       .  S
C2453      C2454   1.394       .  A
C2453      C2458   1.409       .  A
C2453      H2460   1.086       .  S
C2454      C2455   1.412       .  A
C2455      C3558   1.520       .  S
C2455      C2456   1.418       .  A
C2456      C2457   1.435       .  A
C2456      H2461   1.074       .  S
C2457      C2458   1.453       .  A
C2458      C2459   1.517       .  S
C2459      F2463   1.383       .  S
C2459      F2464   1.384       .  S
C2459      F2465   1.353       .  S
C2462      C3551   1.520   1_545  S
C2462      F3562   1.384   1_545  S
C2462      F2467   1.382       .  S
C2462      F2468   1.385       .  S
F2466      C3558   1.384       .  S
C2469      C2470   1.402       .  A
C2469      C2474   1.416       .  A
C2469      H2476   1.082   1_554  S
C2470      C2471   1.410       .  A
C2471      C2478   1.523       .  S
C2471      C2472   1.406       .  A
C2472      C2473   1.422       .  A
C2472      H2477   1.068       .  S
C2473      C2474   1.452       .  A
C2474      C2475   1.536   1_554  S
C2475      F3027   1.385       .  S
C2475      F2480   1.379   1_556  S
C2475      F3029   1.375       .  S
C2478      F2482   1.384       .  S
C2478      F2483   1.383       .  S
C2478      F2484   1.385       .  S
F2479      C3023   1.386       .  S
F2481      C3023   1.374       .  S
C2485      C2486   1.406       .  A
C2485      C2490   1.418       .  A
C2485      H2492   1.081       .  S
C2486      C3583   1.415       .  A
C2487      C2494   1.525   1_554  S
C2487      C3582   1.414   1_545  A
C2487      C3584   1.407   1_545  A
C2488      C3583   1.406       .  A
C2488      C2489   1.426       .  A
C2488      H3589   1.069       .  S
C2489      C2490   1.452       .  A
C2490      C2491   1.537       .  S
C2491      F2495   1.385       .  S
C2491      F2496   1.380       .  S
C2491      F2497   1.374       .  S
H2493      C3584   1.070   1_545  S
C2494      F3046   1.382       .  S
C2494      F2499   1.383   1_556  S
C2494      F2500   1.385       .  S
F2498      C3042   1.383       .  S
C2501      C2502   1.383       .  A
C2501      C2506   1.407       .  A
C2501      H2508   1.083       .  S
C2502      C2503   1.399       .  A
C2503      C2510   1.517       .  S
C2503      C2504   1.404       .  A
C2504      C2505   1.433       .  A
C2504      H2509   1.082       .  S
C2505      C2506   1.456       .  A
C2506      C2507   1.523       .  S
C2507      F2511   1.360       .  S
C2507      F2512   1.363       .  S
C2507      F2513   1.386       .  S
C2510      F2514   1.384       .  S
C2510      F2515   1.383       .  S
C2510      F2516   1.385       .  S
C2517      C2518   1.431       .  A
C2517      C2522   1.405       .  A
C2517      H2524   1.072       .  S
C2518      C2519   1.450       .  A
C2519      C2526   1.529       .  S
C2519      C2520   1.414       .  A
C2520      C2521   1.399       .  A
C2520      H2525   1.085       .  S
C2521      C2522   1.405       .  A
C2522      C2523   1.524       .  S
C2523      F2527   1.385       .  S
C2523      F2528   1.383       .  S
C2523      F2529   1.384       .  S
C2526      F2530   1.384       .  S
C2526      F2531   1.372       .  S
C2526      F2532   1.384       .  S
C2533      C2534   1.428       .  A
C2533      C2538   1.409       .  A
C2533      H2540   1.072       .  S
C2534      C2535   1.458       .  A
C2535      C2542   1.533       .  S
C2535      C2536   1.416       .  A
C2536      C2537   1.394       .  A
C2536      H2541   1.082       .  S
C2537      C2538   1.409       .  A
C2538      C2539   1.520       .  S
C2539      F2543   1.385       .  S
C2539      F2544   1.383       .  S
C2539      F2545   1.382       .  S
C2542      F2546   1.378       .  S
C2542      F2547   1.364       .  S
C2542      F2548   1.385       .  S
C2549      C3098   1.416   1_554  A
C2549      C2554   1.410       .  A
C2549      H2556   1.081       .  S
C2550      C3097   1.415       .  A
C2550      C2551   1.465       .  A
C2552      C2553   1.411       .  A
C2552      H2557   1.082   1_554  S
C2554      C2555   1.528       .  S
C2555      F2559   1.380       .  S
C2555      F2560   1.363       .  S
C2555      F2561   1.382       .  S
C2558      F2562   1.359       .  S
C2558      F2563   1.386       .  S
C2558      F2564   1.384       .  S
C2565      C2566   1.428       .  A
C2565      C2570   1.407       .  A
C2565      H2572   1.067       .  S
C2566      C2567   1.461       .  A
C2567      C2574   1.535       .  S
C2567      C2568   1.420       .  A
C2568      C2569   1.392       .  A
C2568      H2573   1.082       .  S
C2569      C2570   1.401       .  A
C2570      C3119   1.522       .  S
C2571      C3118   1.522       .  S
C2571      F2575   1.383       .  S
C2571      F2576   1.381       .  S
C2571      F3125   1.382       .  S
C2574      F2578   1.385       .  S
C2574      F2579   1.373       .  S
C2574      F2580   1.380       .  S
F2577      C3119   1.383       .  S
C2581      C2582   1.384       .  A
C2581      C2586   1.404       .  A
C2581      H2588   1.084       .  S
C2582      C2583   1.398       .  A
C2583      C2590   1.520       .  S
C2583      C2584   1.399       .  A
C2584      C2585   1.424       .  A
C2584      H2589   1.069       .  S
C2585      C2586   1.459       .  A
C2586      C2587   1.534       .  S
C2587      F2591   1.387       .  S
C2587      F2592   1.371       .  S
C2587      F2593   1.380       .  S
C2590      F2594   1.383       .  S
C2590      F2595   1.383       .  S
C2590      F2596   1.385       .  S
C2597      C2598   1.429       .  A
C2597      C2602   1.419       .  A
C2597      H2604   1.078       .  S
C2598      C2599   1.457       .  A
C2599      C2606   1.523       .  S
C2599      C2600   1.409       .  A
C2600      C2601   1.384       .  A
C2601      C2602   1.410       .  A
C2602      C2603   1.516       .  S
C2603      F2607   1.385       .  S
C2603      F2608   1.383       .  S
C2603      F2609   1.383       .  S
C2606      F3158   1.367       .  S
F2610      C3154   1.368       .  S
C2613      C2614   1.419       .  A
C2613      H3716   1.079       .  S
C2615      C2622   1.545       .  S
C2615      C2616   1.418       .  A
C2616      C3713   1.420   1_545  A
C2616      H2621   1.075       .  S
C2617      C3712   1.422       .  A
C2617      C2618   1.456       .  A
C2619      F2623   1.386   1_455  S
C2619      F2625   1.367       .  S
H2620      C3709   1.079       .  S
C2622      F2626   1.386       .  S
C2622      F2627   1.374       .  S
C2622      F2628   1.373       .  S
C2629      C2630   1.427       .  A
C2629      C2634   1.410       .  A
C2629      H2636   1.070       .  S
C2630      C2631   1.454       .  A
C2632      H2637   1.083       .  S
C2633      C2634   1.407       .  A
C2634      C2635   1.521   1_655  S
C2635      F2639   1.384       .  S
C2635      F2640   1.383   1_455  S
C2635      F2641   1.383       .  S
C2638      F2642   1.364       .  S
C2638      F2643   1.386       .  S
C2638      F2644   1.379       .  S
C2645      C2646   1.429       .  A
C2645      C2650   1.408       .  A
C2645      H2652   1.082       .  S
C2646      C2647   1.463       .  A
C2647      C2654   1.538       .  S
C2647      C2648   1.405       .  A
C2648      C2649   1.383       .  A
C2648      H2653   1.088       .  S
C2649      C2650   1.404       .  A
C2650      C2651   1.513       .  S
C2651      F2655   1.385       .  S
C2651      F2656   1.379       .  S
C2651      F2657   1.383       .  S
C2654      F2658   1.380   1_545  S
C2654      F2659   1.365       .  S
C2654      F2660   1.388       .  S
C2661      C2666   1.414       .  A
C2661      H2668   1.086       .  S
C2662      C2663   1.407       .  A
C2663      C2670   1.518       .  S
C2663      C2664   1.417       .  A
C2664      C2665   1.436       .  A
C2664      H2669   1.073       .  S
C2666      C2667   1.517       .  S
C2667      F2671   1.383       .  S
C2667      F2672   1.383       .  S
C2667      F2673   1.357       .  S
C2670      F2674   1.382       .  S
C2670      F2675   1.384   1_545  S
C2670      F2676   1.384       .  S
C2677      C2678   1.412       .  A
C2677      C2682   1.414       .  A
C2677      H2684   1.077       .  S
C2678      C2679   1.453       .  A
C2679      C2686   1.540       .  S
C2679      C2680   1.423       .  A
C2680      C2681   1.416       .  A
C2680      H2685   1.068       .  S
C2681      C2682   1.453       .  A
C2682      C2683   1.538       .  S
C2683      F2687   1.387       .  S
C2683      F2688   1.373       .  S
C2683      F2689   1.379       .  S
C2686      F2690   1.376       .  S
C2686      F2691   1.372       .  S
C2686      F2692   1.386       .  S
C2693      C2694   1.420       .  A
C2693      C2698   1.405       .  A
C2693      H2700   1.070       .  S
C2694      C2695   1.450       .  A
C2695      C2702   1.528       .  S
C2695      C2696   1.412       .  A
C2696      C2697   1.395       .  A
C2696      H2701   1.086       .  S
C2697      C2698   1.411       .  A
C2698      C2699   1.522       .  S
C2699      F2703   1.385       .  S
C2699      F2704   1.384       .  S
C2699      F2705   1.383       .  S
C2702      F2706   1.383       .  S
C2702      F2707   1.371       .  S
C2702      F2708   1.386       .  S
C2709      C2710   1.395       .  A
C2709      C2714   1.407       .  A
C2709      H2716   1.082       .  S
C2710      C2711   1.411       .  A
C2711      C2718   1.520       .  S
C2711      C2712   1.415       .  A
C2712      C2713   1.431       .  A
C2712      H2717   1.071       .  S
C2713      C2714   1.449       .  A
C2714      C2715   1.526       .  S
C2715      F2719   1.386       .  S
C2715      F2720   1.365       .  S
C2715      F2721   1.381       .  S
C2718      F2722   1.383       .  S
C2718      F2723   1.383       .  S
C2718      F2724   1.385       .  S
C2725      C2726   1.429       .  A
C2725      C2730   1.406       .  A
C2725      H2732   1.069       .  S
C2726      C2727   1.450       .  A
C2727      C2734   1.535       .  S
C2727      C2728   1.416       .  A
C2728      C2729   1.401       .  A
C2728      H2733   1.081       .  S
C2729      C2730   1.409       .  A
C2730      C2731   1.523       .  S
C2731      F2735   1.376       .  S
C2731      F2736   1.383       .  S
C2731      F2737   1.383       .  S
C2734      F2738   1.385       .  S
C2734      F2739   1.374       .  S
C2734      F2740   1.380       .  S
C2741      C3226   1.612       .  S
C2741      C3242   1.598       .  S
C2741      C3261   1.594       .  S
C2741      C3274   1.592       .  S
C2742      C3162   1.587       .  S
C2742      C3178   1.601       .  S
C2742      C3194   1.590       .  S
C2742      C3213   1.636       .  S
C2743      C3098   1.601       .  S
C2743      C3114   1.618       .  S
C2743      C3133   1.567       .  S
C2743      C3146   1.613       .  S
C2744      C3053   1.590       .  S
C2744      C3066   1.600       .  S
C2744      C3082   1.624       .  S
C2744      C3229   1.608       .  S
C2745      C2986   1.610       .  S
C2745      C3005   1.624       .  S
C2745      C3021   1.583       .  S
C2745      C3037   1.604       .  S
C2746      C2941   1.578       .  S
C2746      C2954   1.626       .  S
C2746      C2970   1.620       .  S
C2746      C3101   1.581       .  S
C2747      C2893   1.606       .  S
C2747      C2909   1.608       .  S
C2747      C2922   1.576       .  S
C2747      C2989   1.591       .  S
C2748      C2842   1.591       .  S
C2748      C2861   1.588       .  S
C2748      C2877   1.624       .  S
C2748      C3165   1.583       .  S
Zn2749     O2753   1.973       .  S
Zn2749     O2754   2.002       .  S
Zn2749     O2758   2.026       .  S
Zn2749     O2765   2.020       .  S
Zn2750     O3851   2.064   1_545  S
Zn2750     O2757   2.020       .  S
Zn2750     O2761   2.042       .  S
Zn2751     O3849   1.966       .  S
Zn2751     O2756   2.005       .  S
Zn2751     O2759   2.026       .  S
Zn2752     O2760   2.056       .  S
Zn2752     O2764   2.081       .  S
O2753     Zn3847   1.967   1_545  S
O2755     Zn3846   2.066       .  S
O2755      C2767   1.278   1_556  A
O2756      C2768   1.273       .  A
O2757      C2766   1.273       .  A
O2758      C3864   1.271       .  A
O2760      C3865   1.279       .  A
O2762      C2769   1.276       .  A
O2763      C2770   1.279       .  A
O2764      C2771   1.280       .  A
C2766      C2925   1.465       .  S
C2767      C3149   1.488   1_554  S
C2768      O3854   1.271       .  A
C2768      C2874   1.492       .  S
C2769      O3856   1.278       .  A
C2769      C3034   1.509       .  S
C2770      C3210   1.497       .  S
C2771      C2973   1.497       .  S
Zn2772     O2776   1.953       .  S
Zn2772     O2777   1.998       .  S
Zn2772     O2781   2.004       .  S
Zn2772     O2788   2.060       .  S
Zn2773     O3872   1.960       .  S
Zn2773     O2778   2.012       .  S
Zn2773     O2780   2.016       .  S
Zn2773     O2784   1.995       .  S
Zn2774     O2776   1.961       .  S
Zn2774     O2779   2.003       .  S
Zn2774     O2782   2.053       .  S
Zn2774     O2785   2.014       .  S
Zn2775     O2776   1.968   1_565  S
Zn2775     O2783   2.021   1_565  S
Zn2775     O3882   2.038       .  S
Zn2775     O2787   2.033   1_565  S
O2776     Zn3869   1.958   1_545  S
O2777      C3885   1.275   1_545  A
O2778      C2790   1.273       .  A
O2779      C2791   1.272       .  A
O2780      C2789   1.269       .  A
O2781      C2791   1.272       .  A
O2782      C3886   1.274   1_545  A
O2783      C2792   1.274       .  A
O2784      C2793   1.271       .  A
O2785      C2792   1.274       .  A
O2786     Zn3871   2.047       .  S
O2786      C2793   1.279       .  A
O2787      C2794   1.272       .  A
O2788      C2794   1.277       .  A
C2789      O3873   1.274       .  A
C2789      C2845   1.498       .  S
C2790      O3878   1.276       .  A
C2790      C3002   1.501       .  S
C2791      C3050   1.462       .  S
C2792      C3197   1.469       .  S
C2793      C3245   1.481       .  S
C2794      C2906   1.499       .  S
Zn2795     O2799   1.946       .  S
Zn2795     O2800   2.008       .  S
Zn2795     O2811   1.979       .  S
Zn2796     O2799   1.975       .  S
Zn2796     O2801   2.050       .  S
Zn2796     O2803   2.044       .  S
Zn2796     O2807   2.031       .  S
Zn2797     O2802   2.020       .  S
Zn2797     O2805   2.019       .  S
Zn2797     O2808   2.039       .  S
Zn2798     O2799   1.981       .  S
Zn2798     O2806   2.014       .  S
Zn2798     O2809   2.035       .  S
Zn2798     O2810   2.061       .  S
O2800      C2812   1.273       .  A
O2802      C2814   1.272       .  A
O2803      C2812   1.276       .  A
O2804      C2814   1.270       .  A
O2805      C2813   1.273   1_556  A
O2807      C2816   1.275       .  A
O2808      C2815   1.276       .  A
O2809      C2816   1.277       .  A
O2810      C2817   1.274       .  A
O2811      C2817   1.271       .  A
C2812      C3018   1.492       .  S
C2813      C3117   1.482   1_554  S
C2814      C3277   1.495       .  S
C2815      C2890   1.487       .  S
C2816      C3085   1.488       .  S
C2817      C2957   1.486       .  S
Zn2818     O2827   2.020       .  S
Zn2818     O2834   2.012       .  S
Zn2819     O2822   1.953       .  S
Zn2819     O2824   2.003       .  S
Zn2819     O2826   2.000       .  S
Zn2819     O2830   1.975       .  S
Zn2820     O2822   1.957       .  S
Zn2820     O2825   2.016       .  S
Zn2820     O2828   2.046       .  S
Zn2820     O2831   2.004       .  S
Zn2821     O2829   1.999       .  S
Zn2821     O2833   2.062       .  S
O2823      C2835   1.270       .  A
O2824      C2836   1.271       .  A
O2826      C2835   1.270       .  A
O2827      C2837   1.272       .  A
O2828      C2836   1.276       .  A
O2829      C2838   1.274       .  A
O2830      C2839   1.268       .  A
O2832      C2839   1.274       .  A
O2833      C2840   1.276       .  A
O2834      C2840   1.273       .  A
C2835      C3130   1.457       .  S
C2836      C3069   1.485       .  S
C2837      C3181   1.481       .  S
C2838      C2938   1.460       .  S
C2839      C2858   1.475       .  S
C2840      C3258   1.501       .  S
C2841      C2842   1.431       .  A
C2841      C2846   1.407       .  A
C2841      H2848   1.080       .  S
C2842      C2843   1.457       .  A
C2843      C3946   1.539       .  S
C2843      C3940   1.406       .  A
C2844      C3939   1.406       .  A
C2844      C3941   1.396   1_545  A
C2844      H2849   1.084       .  S
C2845      C3940   1.396       .  A
C2845      C2846   1.414       .  A
C2846      C2847   1.523       .  S
C2847      F2851   1.385       .  S
C2847      F2852   1.383       .  S
C2847      F2853   1.384       .  S
C2850      C3939   1.539       .  S
C2850      F3950   1.363       .  S
C2850      F2855   1.382       .  S
C2850      F2856   1.388       .  S
F2854      C3946   1.361       .  S
C2857      C2858   1.394       .  A
C2857      C2862   1.408       .  A
C2857      H2864   1.082       .  S
C2858      C2859   1.404       .  A
C2859      C2860   1.406       .  A
C2860      C2861   1.426       .  A
C2860      H2865   1.072       .  S
C2861      C2862   1.452       .  A
C2862      C2863   1.527       .  S
C2863      F2867   1.385       .  S
C2863      F2868   1.362       .  S
C2863      F2869   1.379       .  S
C2866      F2870   1.381       .  S
C2866      F2872   1.385       .  S
C2873      C2874   1.392       .  A
C2873      C2878   1.406       .  A
C2874      C2875   1.411       .  A
C2875      C2882   1.522       .  S
C2875      C2876   1.411       .  A
C2876      C2877   1.433       .  A
C2876      H2881   1.075       .  S
C2877      C2878   1.451       .  A
C2879      F2883   1.384       .  S
C2879      F2885   1.384       .  S
C2882      F3982   1.383       .  S
C2882      F2887   1.384       .  S
C2882      F2888   1.385       .  S
F2886      C3978   1.383       .  S
C2889      C2890   1.391   1_554  A
C2889      C2894   1.411       .  A
C2889      H2896   1.083       .  S
C2890      C2891   1.407       .  A
C2891      C2898   1.519       .  S
C2891      C2892   1.411       .  A
C2892      C2893   1.431       .  A
C2892      H2897   1.073       .  S
C2893      C2894   1.452   1_556  A
C2894      C2895   1.527       .  S
C2895      F2899   1.386       .  S
C2895      F2900   1.364       .  S
C2895      F2901   1.379       .  S
C2898      F2903   1.383       .  S
C2898      F2904   1.385       .  S
C2905      C2906   1.395       .  A
C2905      C2910   1.413       .  A
C2905      H2912   1.085       .  S
C2906      C2907   1.416       .  A
C2907      C2914   1.517       .  S
C2907      C2908   1.412       .  A
C2908      C2909   1.421       .  A
C2908      H2913   1.077       .  S
C2909      C2910   1.453       .  A
C2910      C2911   1.531       .  S
C2911      F2915   1.387   1_545  S
C2911      F2916   1.382       .  S
C2911      F2917   1.370   1_545  S
C2914      F2918   1.381       .  S
C2914      F2919   1.383       .  S
C2914      F2920   1.385       .  S
C2921      C2922   1.430       .  A
C2921      C2926   1.402       .  A
C2921      H2928   1.081       .  S
C2923      C2930   1.537   1_545  S
C2923      C2924   1.411       .  A
C2924      H2929   1.084       .  S
C2925      C2926   1.397       .  A
C2926      C2927   1.518       .  S
C2927      F2931   1.385       .  S
C2927      F2932   1.384       .  S
C2927      F2933   1.383       .  S
C2930      F2934   1.367   1_565  S
C2930      F2935   1.377       .  S
C2930      F2936   1.387       .  S
C2937      C2942   1.400       .  A
C2937      H2944   1.088       .  S
C2938      C2939   1.402       .  A
C2939      C2946   1.517       .  S
C2939      C2940   1.409       .  A
C2940      C2941   1.426       .  A
C2940      H2945   1.081       .  S
C2942      C2943   1.545       .  S
C2943      F2947   1.387       .  S
C2943      F2948   1.359       .  S
C2943      F2949   1.383       .  S
C2946      F2950   1.383       .  S
C2946      F2951   1.383       .  S
C2946      F2952   1.384       .  S
C2953      C2954   1.442       .  A
C2953      C2958   1.418       .  A
C2953      H2960   1.072       .  S
C2954      C2955   1.458       .  A
C2955      C2962   1.520       .  S
C2955      C2956   1.401       .  A
C2956      C2957   1.383       .  A
C2956      H2961   1.083       .  S
C2957      C2958   1.403       .  A
C2958      C2959   1.518       .  S
C2959      F2963   1.385       .  S
C2959      F2964   1.383       .  S
C2959      F2965   1.382       .  S
C2962      F2966   1.363       .  S
C2962      F2967   1.369       .  S
C2962      F2968   1.387       .  S
C2969      C2970   1.436       .  A
C2969      C2974   1.411       .  A
C2969      H2976   1.069       .  S
C2970      C2971   1.456       .  A
C2971      C2978   1.524   1_655  S
C2971      C2972   1.420       .  A
C2972      C2973   1.397       .  A
C2972      H2977   1.086   1_655  S
C2973      C2974   1.404       .  A
C2975      F2979   1.384       .  S
C2975      F2980   1.382       .  S
C2978      F2982   1.382   1_455  S
C2978      F2983   1.363       .  S
C2978      F2984   1.386       .  S
C2985      C4082   1.424   1_545  A
C2985      C2990   1.410       .  A
C2985      H2992   1.081       .  S
C2986      C4081   1.424       .  A
C2986      C2987   1.463       .  A
C2987      C2994   1.554       .  S
C2987      C4084   1.421       .  A
C2988      C4083   1.421       .  A
C2988      H2993   1.073       .  S
C2991      F2995   1.386       .  S
C2991      F2996   1.380       .  S
C2991      F2997   1.374   1_554  S
C2994      F2998   1.385       .  S
C2994      F2999   1.370       .  S
C2994      F3000   1.376       .  S
C3001      C3002   1.394       .  A
C3001      C3006   1.410       .  A
C3001      H3008   1.086       .  S
C3002      C3003   1.410       .  A
C3003      C4106   1.520       .  S
C3003      C3004   1.416       .  A
C3004      C3005   1.434       .  A
C3004      H3009   1.074       .  S
C3005      C3006   1.454       .  A
C3006      C3007   1.518       .  S
C3007      F3011   1.383       .  S
C3007      F3012   1.384       .  S
C3007      F3013   1.354       .  S
C3010      C4099   1.520   1_545  S
C3010      F4110   1.384   1_545  S
C3010      F3015   1.382       .  S
C3010      F3016   1.385       .  S
F3014      C4106   1.384       .  S
C3017      C3018   1.401       .  A
C3017      C3022   1.416       .  A
C3017      H3024   1.082       .  S
C3018      C3019   1.409       .  A
C3019      C3026   1.523       .  S
C3019      C3020   1.407       .  A
C3020      C3021   1.423       .  A
C3020      H3025   1.069       .  S
C3021      C3022   1.453       .  A
C3022      C3023   1.535       .  S
C3023      F3028   1.379       .  S
C3026      F3030   1.384       .  S
C3026      F3031   1.382       .  S
C3026      F3032   1.385       .  S
C3033      C3034   1.407       .  A
C3033      C3038   1.419       .  A
C3033      H3040   1.081       .  S
C3034      C4131   1.415       .  A
C3035      C3042   1.525       .  S
C3035      C4130   1.414   1_545  A
C3035      C4132   1.407   1_545  A
C3036      C4131   1.407       .  A
C3036      C3037   1.426       .  A
C3036      H4137   1.069       .  S
C3037      C3038   1.452       .  A
C3038      C3039   1.537       .  S
C3039      F3043   1.385       .  S
C3039      F3044   1.381       .  S
C3039      F3045   1.374       .  S
H3041      C4132   1.070   1_545  S
C3042      F3047   1.383       .  S
C3042      F3048   1.385       .  S
C3049      C3050   1.384       .  A
C3049      C3054   1.409       .  A
C3049      H3056   1.083       .  S
C3050      C3051   1.397       .  A
C3051      C3058   1.518       .  S
C3051      C3052   1.401       .  A
C3052      C3053   1.434       .  A
C3052      H3057   1.081       .  S
C3053      C3054   1.457       .  A
C3054      C3055   1.525       .  S
C3055      F3059   1.361       .  S
C3055      F3060   1.362       .  S
C3055      F3061   1.386       .  S
C3058      F3062   1.384       .  S
C3058      F3063   1.383       .  S
C3058      F3064   1.385       .  S
C3065      C3066   1.432       .  A
C3065      C3070   1.405       .  A
C3065      H3072   1.072       .  S
C3066      C3067   1.449       .  A
C3067      C3074   1.528       .  S
C3067      C3068   1.413       .  A
C3068      C3069   1.399       .  A
C3068      H3073   1.085       .  S
C3069      C3070   1.405       .  A
C3070      C3071   1.524       .  S
C3071      F3075   1.385       .  S
C3071      F3076   1.383       .  S
C3071      F3077   1.383       .  S
C3074      F3078   1.384       .  S
C3074      F3079   1.372       .  S
C3074      F3080   1.383       .  S
C3081      C3082   1.429       .  A
C3081      C3086   1.407       .  A
C3081      H3088   1.072       .  S
C3082      C3083   1.458       .  A
C3083      C3090   1.534       .  S
C3083      C3084   1.416       .  A
C3084      C3085   1.394       .  A
C3084      H3089   1.082       .  S
C3085      C3086   1.407       .  A
C3086      C3087   1.521       .  S
C3087      F3091   1.385       .  S
C3087      F3092   1.383       .  S
C3087      F3093   1.382       .  S
C3090      F3094   1.377       .  S
C3090      F3095   1.363       .  S
C3090      F3096   1.386       .  S
C3097      C3102   1.411       .  A
C3097      H3104   1.082       .  S
C3098      C3099   1.464       .  A
C3100      C3101   1.410       .  A
C3100      H3105   1.082       .  S
C3102      C3103   1.530       .  S
C3103      F3107   1.380       .  S
C3103      F3108   1.364       .  S
C3103      F3109   1.382       .  S
C3106      F3110   1.359       .  S
C3106      F3111   1.386       .  S
C3106      F3112   1.384       .  S
C3113      C3114   1.427       .  A
C3113      C3118   1.405   1_556  A
C3113      H3120   1.066       .  S
C3114      C3115   1.460       .  A
C3115      C3122   1.534       .  S
C3115      C3116   1.420       .  A
C3116      C3117   1.392       .  A
C3116      H3121   1.082       .  S
C3117      C3118   1.400   1_556  A
C3119      F3123   1.383       .  S
C3119      F3124   1.382       .  S
C3122      F3126   1.385       .  S
C3122      F3127   1.373       .  S
C3122      F3128   1.380       .  S
C3129      C3130   1.383       .  A
C3129      C3134   1.405       .  A
C3129      H3136   1.084       .  S
C3130      C3131   1.398       .  A
C3131      C3138   1.520       .  S
C3131      C3132   1.401       .  A
C3132      C3133   1.424       .  A
C3132      H3137   1.069       .  S
C3133      C3134   1.460       .  A
C3134      C3135   1.533       .  S
C3135      F3139   1.386       .  S
C3135      F3140   1.372       .  S
C3135      F3141   1.379       .  S
C3138      F3142   1.383       .  S
C3138      F3143   1.383       .  S
C3138      F3144   1.385       .  S
C3145      C3146   1.429   1_554  A
C3145      C3150   1.420       .  A
C3145      H3152   1.078       .  S
C3146      C3147   1.457       .  A
C3147      C3154   1.523       .  S
C3147      C3148   1.410       .  A
C3148      C3149   1.385       .  A
C3149      C3150   1.410   1_556  A
C3150      C3151   1.515       .  S
C3151      F3155   1.385       .  S
C3151      F3156   1.383       .  S
C3151      F3157   1.383       .  S
C3161      C3162   1.419       .  A
C3161      H4264   1.080       .  S
C3163      C3170   1.547       .  S
C3163      C3164   1.417       .  A
C3164      C4261   1.421   1_545  A
C3164      H3169   1.075       .  S
C3165      C4260   1.422       .  A
C3165      C3166   1.456       .  A
C3167      F3171   1.386   1_455  S
C3167      F3173   1.366       .  S
H3168      C4257   1.079       .  S
C3170      F3174   1.386       .  S
C3170      F3175   1.373       .  S
C3170      F3176   1.374       .  S
C3177      C3178   1.427       .  A
C3177      C3182   1.410       .  A
C3177      H3184   1.070       .  S
C3178      C3179   1.455       .  A
C3180      H3185   1.083       .  S
C3181      C3182   1.406       .  A
C3182      C3183   1.521   1_655  S
C3183      F3187   1.384       .  S
C3183      F3188   1.382   1_455  S
C3183      F3189   1.383       .  S
C3186      F3190   1.363       .  S
C3186      F3191   1.386       .  S
C3186      F3192   1.379       .  S
C3193      C3194   1.429       .  A
C3193      C3198   1.407       .  A
C3193      H3200   1.082       .  S
C3194      C3195   1.462       .  A
C3195      C3202   1.538       .  S
C3195      C3196   1.403       .  A
C3196      C3197   1.383       .  A
C3196      H3201   1.088       .  S
C3197      C3198   1.404       .  A
C3198      C3199   1.514       .  S
C3199      F3203   1.385       .  S
C3199      F3204   1.379       .  S
C3199      F3205   1.384       .  S
C3202      F3206   1.380   1_545  S
C3202      F3207   1.365       .  S
C3202      F3208   1.388       .  S
C3209      C3214   1.412       .  A
C3209      H3216   1.087       .  S
C3210      C3211   1.407       .  A
C3211      C3218   1.518       .  S
C3211      C3212   1.418       .  A
C3212      C3213   1.437       .  A
C3212      H3217   1.073       .  S
C3214      C3215   1.515       .  S
C3215      F3219   1.384       .  S
C3215      F3220   1.383       .  S
C3215      F3221   1.353       .  S
C3218      F3222   1.382       .  S
C3218      F3223   1.384   1_545  S
C3218      F3224   1.385       .  S
C3225      C3226   1.413       .  A
C3225      C3230   1.416       .  A
C3225      H3232   1.076       .  S
C3226      C3227   1.454       .  A
C3227      C3234   1.541       .  S
C3227      C3228   1.423       .  A
C3228      C3229   1.415       .  A
C3228      H3233   1.065       .  S
C3229      C3230   1.452       .  A
C3230      C3231   1.537       .  S
C3231      F3235   1.386       .  S
C3231      F3236   1.375       .  S
C3231      F3237   1.378       .  S
C3234      F3238   1.376       .  S
C3234      F3239   1.372       .  S
C3234      F3240   1.385       .  S
C3241      C3242   1.419       .  A
C3241      C3246   1.405       .  A
C3241      H3248   1.068       .  S
C3242      C3243   1.450       .  A
C3243      C3250   1.528       .  S
C3243      C3244   1.412       .  A
C3244      C3245   1.395       .  A
C3244      H3249   1.086       .  S
C3245      C3246   1.411       .  A
C3246      C3247   1.522       .  S
C3247      F3251   1.385       .  S
C3247      F3252   1.384       .  S
C3247      F3253   1.383       .  S
C3250      F3254   1.382       .  S
C3250      F3255   1.370       .  S
C3250      F3256   1.386       .  S
C3257      C3258   1.396       .  A
C3257      C3262   1.410       .  A
C3257      H3264   1.082       .  S
C3258      C3259   1.412       .  A
C3259      C3266   1.519       .  S
C3259      C3260   1.417       .  A
C3260      C3261   1.430       .  A
C3260      H3265   1.071       .  S
C3261      C3262   1.450       .  A
C3262      C3263   1.526       .  S
C3263      F3267   1.386       .  S
C3263      F3268   1.365       .  S
C3263      F3269   1.381       .  S
C3266      F3270   1.383       .  S
C3266      F3271   1.383       .  S
C3266      F3272   1.385       .  S
C3273      C3274   1.428       .  A
C3273      C3278   1.406       .  A
C3273      H3280   1.067       .  S
C3274      C3275   1.451       .  A
C3275      C3282   1.536       .  S
C3275      C3276   1.416       .  A
C3276      C3277   1.401       .  A
C3276      H3281   1.081       .  S
C3277      C3278   1.410       .  A
C3278      C3279   1.524       .  S
C3279      F3283   1.377       .  S
C3279      F3284   1.383       .  S
C3279      F3285   1.383       .  S
C3282      F3286   1.386       .  S
C3282      F3287   1.373       .  S
C3282      F3288   1.380       .  S
C3289      C3774   1.609       .  S
C3289      C3790   1.597       .  S
C3289      C3809   1.592       .  S
C3289      C3822   1.589       .  S
C3290      C3710   1.582       .  S
C3290      C3726   1.596       .  S
C3290      C3742   1.592       .  S
C3290      C3761   1.637       .  S
C3291      C3646   1.601       .  S
C3291      C3662   1.616       .  S
C3291      C3681   1.564       .  S
C3291      C3694   1.612       .  S
C3292      C3601   1.589       .  S
C3292      C3614   1.596       .  S
C3292      C3630   1.623       .  S
C3292      C3777   1.608       .  S
C3293      C3534   1.611       .  S
C3293      C3553   1.621       .  S
C3293      C3569   1.581       .  S
C3293      C3585   1.604       .  S
C3294      C3489   1.578       .  S
C3294      C3502   1.627       .  S
C3294      C3518   1.619       .  S
C3294      C3649   1.581       .  S
C3295      C3441   1.605       .  S
C3295      C3457   1.609       .  S
C3295      C3470   1.575       .  S
C3295      C3537   1.590       .  S
C3296      C3390   1.596       .  S
C3296      C3409   1.588       .  S
C3296      C3425   1.623       .  S
C3296      C3713   1.589       .  S
Zn3297     O3301   1.967       .  S
Zn3297     O3302   2.004       .  S
Zn3297     O3306   2.015       .  S
Zn3297     O3313   2.017       .  S
Zn3298     O3849   1.973       .  S
Zn3298     O3305   2.006       .  S
Zn3298     O3309   2.038       .  S
Zn3299     O3304   2.006       .  S
Zn3299     O3307   2.030       .  S
Zn3300     O3308   2.049   1_556  S
Zn3300     O3859   2.065       .  S
Zn3300     O3312   2.078   1_556  S
O3301     Zn3846   1.972   1_554  S
O3302      C3862   1.272   1_554  A
O3303      C3315   1.278       .  A
O3304      C3316   1.273   1_565  A
O3305      C3314   1.271       .  A
O3307      C3863   1.273       .  A
O3310      C3317   1.276       .  A
O3311     Zn3848   2.062       .  S
O3311      C3318   1.279       .  A
O3312      C3319   1.280       .  A
C3314      O3850   1.272       .  A
C3314      C3473   1.463       .  S
C3315      O3855   1.272       .  A
C3315      C3697   1.488       .  S
C3316      C3422   1.492       .  S
C3317      C3582   1.507       .  S
C3318      C3758   1.495       .  S
C3319      C3521   1.497       .  S
Zn3320     O3324   1.952       .  S
Zn3320     O3325   1.989       .  S
Zn3320     O3329   1.993       .  S
Zn3320     O3336   2.053       .  S
Zn3321     O3326   2.010       .  S
Zn3321     O3328   2.020       .  S
Zn3321     O3332   1.993       .  S
Zn3322     O3324   1.963       .  S
Zn3322     O3327   2.009       .  S
Zn3322     O3330   2.059       .  S
Zn3322     O3333   2.015       .  S
Zn3323     O3324   1.969       .  S
Zn3323     O3331   2.031       .  S
Zn3323     O3335   2.043       .  S
O3326      C3338   1.273       .  A
O3327      C3339   1.273       .  A
O3328      C3337   1.270       .  A
O3329      C3339   1.270       .  A
O3331      C3340   1.276       .  A
O3332      C3341   1.271       .  A
O3333      C3340   1.274       .  A
O3334      C3341   1.278       .  A
O3335      C3342   1.274       .  A
O3336      C3342   1.276       .  A
C3337      C3393   1.499       .  S
C3338      C3550   1.499       .  S
C3339      C3598   1.461       .  S
C3340      C3745   1.472       .  S
C3341      C3793   1.479       .  S
C3342      C3454   1.499       .  S
Zn3343     O3347   1.944       .  S
Zn3343     O3348   1.994       .  S
Zn3343     O3900   1.997   1_554  S
Zn3343     O3359   1.966       .  S
Zn3344     O3347   1.976       .  S
Zn3344     O3349   2.051       .  S
Zn3344     O3351   2.048       .  S
Zn3344     O3355   2.040       .  S
Zn3345     O3895   1.959       .  S
Zn3345     O3350   2.020       .  S
Zn3345     O3353   2.019       .  S
Zn3345     O3356   2.035       .  S
Zn3346     O3347   1.980       .  S
Zn3346     O3354   2.015       .  S
Zn3346     O3357   2.031       .  S
Zn3346     O3358   2.059       .  S
O3347     Zn3893   1.960   1_554  S
O3348      C3360   1.271       .  A
O3349      C3909   1.277       .  A
O3350      C3362   1.272       .  A
O3351      C3360   1.277       .  A
O3352     Zn3891   1.996       .  S
O3352      C3362   1.269       .  A
O3353      C3361   1.274       .  A
O3354      C3911   1.275   1_554  A
O3355      C3364   1.276       .  A
O3356      C3363   1.275       .  A
O3357      C3364   1.276       .  A
O3358      C3365   1.274       .  A
O3359      C3365   1.269       .  A
C3360      C3566   1.490       .  S
C3361      O3897   1.275       .  A
C3361      C3665   1.481       .  S
C3362      C3825   1.493       .  S
C3363      O3902   1.276       .  A
C3363      C3438   1.487       .  S
C3364      C3633   1.489       .  S
C3365      C3505   1.484       .  S
Zn3366     O3375   2.013       .  S
Zn3366     O3382   2.001       .  S
Zn3367     O3370   1.953       .  S
Zn3367     O3372   1.999       .  S
Zn3367     O3374   1.987       .  S
Zn3367     O3378   1.974       .  S
Zn3368     O3370   1.958       .  S
Zn3368     O3373   2.014       .  S
Zn3368     O3376   2.045       .  S
Zn3368     O3379   1.998       .  S
Zn3369     O3377   1.998       .  S
Zn3369     O3381   2.044       .  S
O3371      C3383   1.269       .  A
O3372      C3384   1.270       .  A
O3374      C3383   1.269       .  A
O3375      C3385   1.271       .  A
O3376      C3384   1.275       .  A
O3377      C3386   1.273       .  A
O3378      C3387   1.268       .  A
O3380      C3387   1.276       .  A
O3381      C3388   1.273       .  A
O3382      C3388   1.272       .  A
C3383      C3678   1.452       .  S
C3384      C3617   1.483       .  S
C3385      C3729   1.479       .  S
C3386      C3486   1.462       .  S
C3387      C3406   1.478       .  S
C3388      C3806   1.494       .  S
C3389      C3390   1.432       .  A
C3389      C3394   1.408       .  A
C3389      H3396   1.080       .  S
C3390      C3391   1.458   1_565  A
C3392      H3397   1.084       .  S
C3393      C3394   1.413       .  A
C3394      C3395   1.522       .  S
C3395      F3399   1.385       .  S
C3395      F3400   1.383       .  S
C3395      F3401   1.384       .  S
C3398      F3403   1.381       .  S
C3398      F3404   1.388       .  S
C3405      C3406   1.397       .  A
C3405      C3410   1.411       .  A
C3405      H3412   1.082       .  S
C3406      C3407   1.405       .  A
C3407      C3408   1.406       .  A
C3408      C3409   1.425       .  A
C3408      H3413   1.072       .  S
C3409      C3410   1.451       .  A
C3410      C3411   1.528       .  S
C3411      F3415   1.385       .  S
C3411      F3416   1.364       .  S
C3411      F3417   1.379       .  S
C3414      F3418   1.381       .  S
C3414      F3420   1.385       .  S
C3421      C3422   1.391   1_565  A
C3421      C3426   1.404       .  A
C3422      C3423   1.411       .  A
C3423      C3430   1.522       .  S
C3423      C3424   1.413       .  A
C3424      C3425   1.434   1_545  A
C3424      H3429   1.075       .  S
C3425      C3426   1.451       .  A
C3427      F3431   1.384       .  S
C3427      F3433   1.384       .  S
C3430      F3435   1.384       .  S
C3430      F3436   1.385       .  S
C3437      C3438   1.391       .  A
C3437      C3442   1.410       .  A
C3437      H3444   1.083       .  S
C3438      C3439   1.408       .  A
C3439      C3446   1.518       .  S
C3439      C3440   1.411       .  A
C3440      C3441   1.430       .  A
C3440      H3445   1.074       .  S
C3441      C3442   1.452       .  A
C3442      C3443   1.526       .  S
C3443      F3447   1.386       .  S
C3443      F3448   1.364       .  S
C3443      F3449   1.379       .  S
C3446      F3998   1.382       .  S
C3446      F3451   1.383       .  S
C3446      F3452   1.385       .  S
F3450      C3994   1.383       .  S
C3453      C3454   1.396       .  A
C3453      C3458   1.414       .  A
C3453      H3460   1.085       .  S
C3454      C3455   1.415       .  A
C3455      C3462   1.516       .  S
C3455      C3456   1.412       .  A
C3456      C3457   1.422       .  A
C3456      H3461   1.077       .  S
C3457      C3458   1.453       .  A
C3458      C3459   1.531       .  S
C3459      F3463   1.386       .  S
C3459      F3464   1.382       .  S
C3459      F3465   1.370       .  S
C3462      F3466   1.382       .  S
C3462      F3467   1.383       .  S
C3462      F3468   1.385       .  S
C3469      C3470   1.430       .  A
C3469      C3474   1.401       .  A
C3469      H3476   1.081       .  S
C3470      C4019   1.464       .  A
C3471      C3478   1.535       .  S
C3471      C4018   1.464   1_554  A
C3471      C3472   1.411       .  A
C3472      C4021   1.386   1_554  A
C3472      H3477   1.085       .  S
C3473      C4020   1.385       .  A
C3473      C3474   1.397       .  A
C3474      C3475   1.518       .  S
C3475      F3479   1.385       .  S
C3475      F3480   1.384       .  S
C3475      F3481   1.383       .  S
C3478      F3482   1.364       .  S
C3478      F3483   1.378       .  S
C3478      F3484   1.387       .  S
C3485      C3490   1.399       .  A
C3485      H3492   1.088       .  S
C3486      C3487   1.402       .  A
C3487      C3494   1.517       .  S
C3487      C3488   1.408       .  A
C3488      C3489   1.426       .  A
C3488      H3493   1.081       .  S
C3490      C3491   1.544       .  S
C3491      F3495   1.387       .  S
C3491      F3496   1.359       .  S
C3491      F3497   1.383       .  S
C3494      F3498   1.383       .  S
C3494      F3499   1.383       .  S
C3494      F3500   1.384       .  S
C3501      C3502   1.443       .  A
C3501      C3506   1.416       .  A
C3501      H3508   1.072       .  S
C3502      C3503   1.457       .  A
C3503      C3510   1.518       .  S
C3503      C3504   1.402       .  A
C3504      C3505   1.383       .  A
C3504      H3509   1.083       .  S
C3505      C3506   1.400       .  A
C3506      C3507   1.518       .  S
C3507      F3511   1.385       .  S
C3507      F3512   1.384   1_554  S
C3507      F3513   1.382       .  S
C3510      F3514   1.362       .  S
C3510      F3515   1.369       .  S
C3510      F3516   1.387       .  S
C3517      C3518   1.436       .  A
C3517      C3522   1.411       .  A
C3517      H3524   1.065       .  S
C3518      C3519   1.455       .  A
C3519      C3526   1.524   1_655  S
C3519      C3520   1.420       .  A
C3520      C3521   1.397       .  A
C3520      H3525   1.085   1_655  S
C3521      C3522   1.404       .  A
C3522      C4071   1.521   1_554  S
C3523      C4070   1.520       .  S
C3523      F3527   1.384       .  S
C3523      F3528   1.382       .  S
C3526      F3530   1.382   1_455  S
C3526      F3531   1.361       .  S
C3526      F3532   1.386       .  S
C3533      C3538   1.410       .  A
C3533      H3540   1.082       .  S
C3534      C3535   1.463       .  A
C3535      C3542   1.554   1_554  S
C3536      C4085   1.415       .  A
C3536      H3541   1.073       .  S
C3537      C4084   1.416       .  A
C3537      C4086   1.436       .  A
C3538      C4087   1.533       .  S
C3538      C4085   1.437   1_554  A
C3539      C4086   1.533       .  S
C3539      F3543   1.386       .  S
C3539      F3544   1.380       .  S
C3539      F3545   1.375       .  S
C3542      F3546   1.385       .  S
C3542      F3547   1.369   1_556  S
C3542      F3548   1.377       .  S
C3549      C3550   1.394       .  A
C3549      C3554   1.408       .  A
C3549      H3556   1.086       .  S
C3550      C3551   1.410       .  A
C3551      C3552   1.415       .  A
C3552      C3553   1.434       .  A
C3552      H3557   1.074       .  S
C3553      C3554   1.453       .  A
C3554      C3555   1.518       .  S
C3555      F3559   1.383       .  S
C3555      F3560   1.384       .  S
C3555      F3561   1.353       .  S
C3558      F3563   1.382       .  S
C3558      F3564   1.385       .  S
C3565      C3566   1.402       .  A
C3565      C3570   1.416       .  A
C3565      H3572   1.082   1_554  S
C3566      C3567   1.408       .  A
C3567      C3574   1.523       .  S
C3567      C3568   1.406       .  A
C3568      C3569   1.423       .  A
C3568      H3573   1.069       .  S
C3569      C3570   1.451       .  A
C3570      C3571   1.535   1_554  S
C3571      F4123   1.385       .  S
C3571      F3576   1.379   1_556  S
C3571      F4125   1.375       .  S
C3574      F3578   1.384       .  S
C3574      F3579   1.382       .  S
C3574      F3580   1.385       .  S
F3575      C4119   1.385       .  S
F3577      C4119   1.375       .  S
C3581      C3582   1.406       .  A
C3581      C3586   1.418       .  A
C3581      H3588   1.081       .  S
C3583      C3590   1.525   1_554  S
C3584      C3585   1.426       .  A
C3585      C3586   1.452       .  A
C3586      C3587   1.537       .  S
C3587      F3591   1.385       .  S
C3587      F3592   1.381       .  S
C3587      F3593   1.373       .  S
C3590      F4142   1.382       .  S
C3590      F3595   1.383       .  S
C3590      F3596   1.385       .  S
F3594      C4138   1.383       .  S
C3597      C3598   1.383       .  A
C3597      C3602   1.407       .  A
C3597      H3604   1.083       .  S
C3598      C3599   1.398       .  A
C3599      C3606   1.518       .  S
C3599      C3600   1.402       .  A
C3600      C3601   1.433       .  A
C3600      H3605   1.081       .  S
C3601      C3602   1.455       .  A
C3602      C3603   1.521       .  S
C3603      F3607   1.360       .  S
C3603      F3608   1.363       .  S
C3603      F3609   1.386       .  S
C3606      F3610   1.383       .  S
C3606      F3611   1.383       .  S
C3606      F3612   1.385       .  S
C3613      C3614   1.431       .  A
C3613      C3618   1.405       .  A
C3613      H3620   1.073       .  S
C3614      C3615   1.449       .  A
C3615      C3622   1.529       .  S
C3615      C3616   1.413       .  A
C3616      C3617   1.399       .  A
C3616      H3621   1.085       .  S
C3617      C3618   1.405       .  A
C3618      C3619   1.524       .  S
C3619      F3623   1.385       .  S
C3619      F3624   1.383       .  S
C3619      F3625   1.384       .  S
C3622      F3626   1.384       .  S
C3622      F3627   1.372       .  S
C3622      F3628   1.383       .  S
C3629      C3630   1.429       .  A
C3629      C3634   1.407       .  A
C3629      H3636   1.073       .  S
C3630      C3631   1.456       .  A
C3631      C3638   1.534       .  S
C3631      C3632   1.415       .  A
C3632      C3633   1.396       .  A
C3632      H3637   1.082       .  S
C3633      C3634   1.408       .  A
C3634      C3635   1.520       .  S
C3635      F3639   1.385       .  S
C3635      F3640   1.383       .  S
C3635      F3641   1.382       .  S
C3638      F3642   1.377       .  S
C3638      F3643   1.365       .  S
C3638      F3644   1.385       .  S
C3645      C4194   1.417   1_554  A
C3645      C3650   1.411       .  A
C3645      H3652   1.082       .  S
C3646      C4193   1.416       .  A
C3646      C3647   1.465       .  A
C3648      C3649   1.410       .  A
C3648      H3653   1.083   1_554  S
C3650      C3651   1.529       .  S
C3651      F3655   1.380       .  S
C3651      F3656   1.363       .  S
C3651      F3657   1.382       .  S
C3654      F3658   1.359   1_655  S
C3654      F3659   1.386       .  S
C3654      F3660   1.384       .  S
C3661      C3662   1.427       .  A
C3661      C3666   1.405       .  A
C3661      H3668   1.067       .  S
C3662      C3663   1.461       .  A
C3663      C3670   1.535       .  S
C3663      C3664   1.419       .  A
C3664      C3665   1.391       .  A
C3664      H3669   1.082       .  S
C3665      C3666   1.400       .  A
C3666      C4215   1.522       .  S
C3667      C4214   1.523       .  S
C3667      F3671   1.383       .  S
C3667      F3672   1.382       .  S
C3667      F4221   1.382       .  S
C3670      F3674   1.385       .  S
C3670      F3675   1.373       .  S
C3670      F3676   1.380       .  S
F3673      C4215   1.383       .  S
C3677      C3678   1.384       .  A
C3677      C3682   1.404       .  A
C3677      H3684   1.084       .  S
C3678      C3679   1.396       .  A
C3679      C3686   1.520       .  S
C3679      C3680   1.398       .  A
C3680      C3681   1.424       .  A
C3680      H3685   1.068       .  S
C3681      C3682   1.460       .  A
C3682      C3683   1.533       .  S
C3683      F3687   1.386       .  S
C3683      F3688   1.372       .  S
C3683      F3689   1.380       .  S
C3686      F3690   1.383       .  S
C3686      F3691   1.383       .  S
C3686      F3692   1.385       .  S
C3693      C3694   1.428       .  A
C3693      C3698   1.419       .  A
C3693      H3700   1.078       .  S
C3694      C3695   1.456       .  A
C3695      C3702   1.522       .  S
C3695      C3696   1.410       .  A
C3696      C3697   1.385       .  A
C3697      C3698   1.410       .  A
C3698      C3699   1.515       .  S
C3699      F3703   1.385       .  S
C3699      F3704   1.383       .  S
C3699      F3705   1.383       .  S
C3702      F4254   1.369       .  S
F3706      C4250   1.368       .  S
C3709      C3710   1.418       .  A
C3711      C3718   1.547       .  S
C3711      C3712   1.418       .  A
C3712      H3717   1.076       .  S
C3713      C3714   1.458       .  A
C3715      F3719   1.386   1_455  S
C3715      F3721   1.368       .  S
C3718      F3722   1.386       .  S
C3718      F3723   1.373       .  S
C3718      F3724   1.374       .  S
C3725      C3726   1.427       .  A
C3725      C3730   1.409       .  A
C3725      H3732   1.070       .  S
C3726      C3727   1.454       .  A
C3728      H3733   1.083       .  S
C3729      C3730   1.406       .  A
C3730      C3731   1.521   1_655  S
C3731      F3735   1.384       .  S
C3731      F3736   1.383   1_455  S
C3731      F3737   1.384       .  S
C3734      F3738   1.363       .  S
C3734      F3739   1.386       .  S
C3734      F3740   1.378       .  S
C3741      C3742   1.430       .  A
C3741      C3746   1.407       .  A
C3741      H3748   1.082       .  S
C3742      C3743   1.464       .  A
C3743      C3750   1.539       .  S
C3743      C3744   1.406       .  A
C3744      C3745   1.383       .  A
C3744      H3749   1.088       .  S
C3745      C3746   1.403       .  A
C3746      C3747   1.513       .  S
C3747      F3751   1.385       .  S
C3747      F3752   1.380       .  S
C3747      F3753   1.383       .  S
C3750      F3754   1.381       .  S
C3750      F3755   1.364       .  S
C3750      F3756   1.388       .  S
C3757      C3762   1.414       .  A
C3757      H3764   1.086       .  S
C3758      C3759   1.406       .  A
C3759      C3766   1.518       .  S
C3759      C3760   1.415       .  A
C3760      C3761   1.435       .  A
C3760      H3765   1.073       .  S
C3762      C3763   1.517       .  S
C3763      F3767   1.384       .  S
C3763      F3768   1.383       .  S
C3763      F3769   1.355       .  S
C3766      F3770   1.382       .  S
C3766      F3771   1.383       .  S
C3766      F3772   1.385       .  S
C3773      C3774   1.412       .  A
C3773      C3778   1.413       .  A
C3773      H3780   1.076       .  S
C3774      C3775   1.452       .  A
C3775      C3782   1.540       .  S
C3775      C3776   1.423       .  A
C3776      C3777   1.416       .  A
C3776      H3781   1.068       .  S
C3777      C3778   1.454       .  A
C3778      C3779   1.539       .  S
C3779      F3783   1.387       .  S
C3779      F3784   1.374       .  S
C3779      F3785   1.378       .  S
C3782      F3786   1.376       .  S
C3782      F3787   1.373       .  S
C3782      F3788   1.385       .  S
C3789      C3790   1.420       .  A
C3789      C3794   1.404       .  A
C3789      H3796   1.072       .  S
C3790      C3791   1.450       .  A
C3791      C3798   1.529       .  S
C3791      C3792   1.410       .  A
C3792      C3793   1.394       .  A
C3792      H3797   1.086       .  S
C3793      C3794   1.411       .  A
C3794      C3795   1.522       .  S
C3795      F3799   1.385       .  S
C3795      F3800   1.384       .  S
C3795      F3801   1.382       .  S
C3798      F3802   1.383       .  S
C3798      F3803   1.370       .  S
C3798      F3804   1.386       .  S
C3805      C3806   1.395       .  A
C3805      C3810   1.408       .  A
C3805      H3812   1.082       .  S
C3806      C3807   1.410       .  A
C3807      C3814   1.520       .  S
C3807      C3808   1.413       .  A
C3808      C3809   1.430       .  A
C3808      H3813   1.070       .  S
C3809      C3810   1.450       .  A
C3810      C3811   1.526       .  S
C3811      F3815   1.386       .  S
C3811      F3816   1.365       .  S
C3811      F3817   1.381       .  S
C3814      F3818   1.383       .  S
C3814      F3819   1.383       .  S
C3814      F3820   1.385       .  S
C3821      C3822   1.428       .  A
C3821      C3826   1.405       .  A
C3821      H3828   1.069       .  S
C3822      C3823   1.450       .  A
C3823      C3830   1.535       .  S
C3823      C3824   1.416       .  A
C3824      C3825   1.401       .  A
C3824      H3829   1.081       .  S
C3825      C3826   1.409       .  A
C3826      C3827   1.523       .  S
C3827      F3831   1.376       .  S
C3827      F3832   1.383       .  S
C3827      F3833   1.382       .  S
C3830      F3834   1.385       .  S
C3830      F3835   1.374       .  S
C3830      F3836   1.380       .  S
C3837      C4322   1.614       .  S
C3837      C4338   1.598       .  S
C3837      C4357   1.591       .  S
C3837      C4370   1.593       .  S
C3838      C4258   1.584       .  S
C3838      C4274   1.600       .  S
C3838      C4290   1.592       .  S
C3838      C4309   1.637       .  S
C3839      C4194   1.604       .  S
C3839      C4210   1.619       .  S
C3839      C4229   1.570       .  S
C3839      C4242   1.613       .  S
C3840      C4149   1.594       .  S
C3840      C4162   1.599       .  S
C3840      C4178   1.626       .  S
C3840      C4325   1.613       .  S
C3841      C4082   1.609       .  S
C3841      C4101   1.625       .  S
C3841      C4117   1.586       .  S
C3841      C4133   1.604       .  S
C3842      C4037   1.580       .  S
C3842      C4050   1.625       .  S
C3842      C4066   1.619       .  S
C3842      C4197   1.580       .  S
C3843      C3989   1.606       .  S
C3843      C4005   1.610       .  S
C3843      C4018   1.577       .  S
C3843      C4085   1.590       .  S
C3844      C3938   1.595       .  S
C3844      C3957   1.586       .  S
C3844      C3973   1.623       .  S
C3844      C4261   1.584       .  S
Zn3845     O3849   1.968       .  S
Zn3845     O3850   2.000       .  S
Zn3845     O3854   2.024       .  S
Zn3845     O3861   2.013       .  S
Zn3846     O3853   2.013       .  S
Zn3846     O3857   2.039       .  S
Zn3847     O3852   2.005       .  S
Zn3847     O3855   2.026       .  S
Zn3848     O3856   2.053       .  S
Zn3848     O3860   2.079       .  S
O3851      C3863   1.278   1_556  A
O3852      C3864   1.273   1_565  A
O3853      C3862   1.272       .  A
O3858      C3865   1.276   1_565  A
O3859      C3866   1.279       .  A
O3860      C3867   1.280       .  A
C3862      C4021   1.465       .  S
C3863      C4245   1.488   1_554  S
C3864      C3970   1.494       .  S
C3865      C4130   1.508   1_545  S
C3866      C4306   1.495       .  S
C3867      C4069   1.495       .  S
Zn3868     O3872   1.956       .  S
Zn3868     O3873   1.996       .  S
Zn3868     O3877   2.002       .  S
Zn3868     O3884   2.058       .  S
Zn3869     O3874   2.023       .  S
Zn3869     O3876   2.023       .  S
Zn3869     O3880   1.996       .  S
Zn3870     O3872   1.965       .  S
Zn3870     O3875   2.016       .  S
Zn3870     O3878   2.064       .  S
Zn3870     O3881   2.020       .  S
Zn3871     O3872   1.970       .  S
Zn3871     O3879   2.028       .  S
Zn3871     O3883   2.038       .  S
O3874      C3886   1.274       .  A
O3875      C3887   1.273       .  A
O3876      C3885   1.271       .  A
O3877      C3887   1.271       .  A
O3879      C3888   1.275       .  A
O3880      C3889   1.272       .  A
O3881      C3888   1.275       .  A
O3882      C3889   1.277       .  A
O3883      C3890   1.273       .  A
O3884      C3890   1.277       .  A
C3885      C3941   1.500       .  S
C3886      C4098   1.501       .  S
C3887      C4146   1.466       .  S
C3888      C4293   1.472       .  S
C3889      C4341   1.478       .  S
C3890      C4002   1.498       .  S
Zn3891     O3895   1.945       .  S
Zn3891     O3896   2.003       .  S
Zn3891     O3907   1.972       .  S
Zn3892     O3895   1.974       .  S
Zn3892     O3897   2.045       .  S
Zn3892     O3899   2.042       .  S
Zn3892     O3903   2.033       .  S
Zn3893     O3898   2.029       .  S
Zn3893     O3901   2.022       .  S
Zn3893     O3904   2.041       .  S
Zn3894     O3895   1.980       .  S
Zn3894     O3902   2.017       .  S
Zn3894     O3905   2.039       .  S
Zn3894     O3906   2.062       .  S
O3896      C3908   1.272       .  A
O3898      C3910   1.273       .  A
O3899      C3908   1.276       .  A
O3900      C3910   1.269       .  A
O3901      C3909   1.274   1_556  A
O3903      C3912   1.275       .  A
O3904      C3911   1.276       .  A
O3905      C3912   1.277       .  A
O3906      C3913   1.274       .  A
O3907      C3913   1.271       .  A
C3908      C4114   1.491       .  S
C3909      C4213   1.483   1_554  S
C3910      C4373   1.497       .  S
C3911      C3986   1.488       .  S
C3912      C4181   1.490       .  S
C3913      C4053   1.484       .  S
Zn3914     O3923   2.016       .  S
Zn3914     O3930   1.996       .  S
Zn3915     O3918   1.953       .  S
Zn3915     O3920   2.007       .  S
Zn3915     O3922   2.002       .  S
Zn3915     O3926   1.966       .  S
Zn3916     O3918   1.958       .  S
Zn3916     O3921   2.019       .  S
Zn3916     O3924   2.051       .  S
Zn3916     O3927   2.007       .  S
Zn3917     O3925   2.002       .  S
Zn3917     O3929   2.044       .  S
O3919      C3931   1.270       .  A
O3920      C3932   1.271       .  A
O3922      C3931   1.270       .  A
O3923      C3933   1.271       .  A
O3924      C3932   1.277       .  A
O3925      C3934   1.273       .  A
O3926      C3935   1.268       .  A
O3928      C3935   1.275       .  A
O3929      C3936   1.274       .  A
O3930      C3936   1.272       .  A
C3931      C4226   1.458       .  S
C3932      C4165   1.486       .  S
C3933      C4277   1.483       .  S
C3934      C4034   1.464       .  S
C3935      C3954   1.473       .  S
C3936      C4354   1.492       .  S
C3937      C3938   1.431       .  A
C3937      C3942   1.409       .  A
C3937      H3944   1.080       .  S
C3938      C3939   1.458   1_565  A
C3940      H3945   1.085       .  S
C3941      C3942   1.414       .  A
C3942      C3943   1.522       .  S
C3943      F3947   1.385       .  S
C3943      F3948   1.383       .  S
C3943      F3949   1.384       .  S
C3946      F3951   1.383       .  S
C3946      F3952   1.388       .  S
C3953      C3954   1.395       .  A
C3953      C3958   1.407       .  A
C3953      H3960   1.083       .  S
C3954      C3955   1.404       .  A
C3955      C3956   1.406       .  A
C3956      C3957   1.426       .  A
C3956      H3961   1.072       .  S
C3957      C3958   1.449       .  A
C3958      C3959   1.527       .  S
C3959      F3963   1.385       .  S
C3959      F3964   1.362       .  S
C3959      F3965   1.379       .  S
C3962      F3966   1.381       .  S
C3962      F3968   1.385       .  S
C3969      C3970   1.392   1_565  A
C3969      C3974   1.404       .  A
C3970      C3971   1.412       .  A
C3971      C3978   1.522       .  S
C3971      C3972   1.413       .  A
C3972      C3973   1.433   1_545  A
C3972      H3977   1.076       .  S
C3973      C3974   1.451       .  A
C3975      F3979   1.384       .  S
C3975      F3981   1.385       .  S
C3978      F3983   1.384       .  S
C3978      F3984   1.385       .  S
C3985      C3986   1.391   1_554  A
C3985      C3990   1.411       .  A
C3985      H3992   1.083       .  S
C3986      C3987   1.407       .  A
C3987      C3994   1.518       .  S
C3987      C3988   1.411       .  A
C3988      C3989   1.430       .  A
C3988      H3993   1.073       .  S
C3989      C3990   1.453   1_556  A
C3990      C3991   1.526       .  S
C3991      F3995   1.386       .  S
C3991      F3996   1.363       .  S
C3991      F3997   1.379       .  S
C3994      F3999   1.383       .  S
C3994      F4000   1.384       .  S
C4001      C4002   1.395       .  A
C4001      C4006   1.415       .  A
C4001      H4008   1.085       .  S
C4002      C4003   1.415       .  A
C4003      C4010   1.517       .  S
C4003      C4004   1.412       .  A
C4004      C4005   1.422       .  A
C4004      H4009   1.077       .  S
C4005      C4006   1.454       .  A
C4006      C4007   1.532       .  S
C4007      F4011   1.387       .  S
C4007      F4012   1.382       .  S
C4007      F4013   1.370       .  S
C4010      F4014   1.383       .  S
C4010      F4015   1.382       .  S
C4010      F4016   1.385       .  S
C4017      C4018   1.430       .  A
C4017      C4022   1.402       .  A
C4017      H4024   1.081       .  S
C4019      C4026   1.536       .  S
C4019      C4020   1.409       .  A
C4020      H4025   1.084       .  S
C4021      C4022   1.397       .  A
C4022      C4023   1.518       .  S
C4023      F4027   1.385       .  S
C4023      F4028   1.383       .  S
C4023      F4029   1.383       .  S
C4026      F4030   1.366       .  S
C4026      F4031   1.377       .  S
C4026      F4032   1.387       .  S
C4033      C4038   1.400       .  A
C4033      H4040   1.088       .  S
C4034      C4035   1.402       .  A
C4035      C4042   1.517       .  S
C4035      C4036   1.409       .  A
C4036      C4037   1.426       .  A
C4036      H4041   1.081       .  S
C4038      C4039   1.543       .  S
C4039      F4043   1.387       .  S
C4039      F4044   1.360       .  S
C4039      F4045   1.383       .  S
C4042      F4046   1.383       .  S
C4042      F4047   1.383       .  S
C4042      F4048   1.384       .  S
C4049      C4050   1.442       .  A
C4049      C4054   1.417       .  A
C4049      H4056   1.072       .  S
C4050      C4051   1.457       .  A
C4051      C4058   1.519       .  S
C4051      C4052   1.401       .  A
C4052      C4053   1.383       .  A
C4052      H4057   1.083       .  S
C4053      C4054   1.402       .  A
C4054      C4055   1.518       .  S
C4055      F4059   1.385       .  S
C4055      F4060   1.383       .  S
C4055      F4061   1.382       .  S
C4058      F4062   1.364       .  S
C4058      F4063   1.369       .  S
C4058      F4064   1.387       .  S
C4065      C4066   1.436       .  A
C4065      C4070   1.411       .  A
C4065      H4072   1.069       .  S
C4066      C4067   1.455       .  A
C4067      C4074   1.523   1_655  S
C4067      C4068   1.419       .  A
C4068      C4069   1.396       .  A
C4068      H4073   1.086       .  S
C4069      C4070   1.404       .  A
C4071      F4075   1.383       .  S
C4071      F4076   1.383       .  S
C4074      F4078   1.382   1_455  S
C4074      F4079   1.362       .  S
C4074      F4080   1.386       .  S
C4081      C4086   1.410       .  A
C4081      H4088   1.081       .  S
C4082      C4083   1.462       .  A
C4083      C4090   1.553       .  S
C4084      H4089   1.074       .  S
C4087      F4091   1.387       .  S
C4087      F4092   1.380       .  S
C4087      F4093   1.374   1_554  S
C4090      F4094   1.385       .  S
C4090      F4095   1.371       .  S
C4090      F4096   1.376       .  S
C4097      C4098   1.394       .  A
C4097      C4102   1.410       .  A
C4097      H4104   1.086       .  S
C4098      C4099   1.411       .  A
C4099      C4100   1.415       .  A
C4100      C4101   1.433       .  A
C4100      H4105   1.074   1_565  S
C4101      C4102   1.454       .  A
C4102      C4103   1.518       .  S
C4103      F4107   1.384       .  S
C4103      F4108   1.384       .  S
C4103      F4109   1.353       .  S
C4106      F4111   1.382       .  S
C4106      F4112   1.385       .  S
C4113      C4114   1.401       .  A
C4113      C4118   1.417       .  A
C4113      H4120   1.082       .  S
C4114      C4115   1.409       .  A
C4115      C4122   1.522       .  S
C4115      C4116   1.407       .  A
C4116      C4117   1.423       .  A
C4116      H4121   1.068       .  S
C4117      C4118   1.453       .  A
C4118      C4119   1.536       .  S
C4119      F4124   1.379       .  S
C4122      F4126   1.384       .  S
C4122      F4127   1.382       .  S
C4122      F4128   1.385       .  S
C4129      C4130   1.406       .  A
C4129      C4134   1.419       .  A
C4129      H4136   1.081       .  S
C4131      C4138   1.525       .  S
C4132      C4133   1.427       .  A
C4133      C4134   1.451       .  A
C4134      C4135   1.536       .  S
C4135      F4139   1.386       .  S
C4135      F4140   1.381       .  S
C4135      F4141   1.372       .  S
C4138      F4143   1.383       .  S
C4138      F4144   1.385       .  S
C4145      C4146   1.383       .  A
C4145      C4150   1.409       .  A
C4145      H4152   1.083       .  S
C4146      C4147   1.398       .  A
C4147      C4154   1.517       .  S
C4147      C4148   1.404       .  A
C4148      C4149   1.433       .  A
C4148      H4153   1.081       .  S
C4149      C4150   1.457       .  A
C4150      C4151   1.522       .  S
C4151      F4155   1.359       .  S
C4151      F4156   1.362       .  S
C4151      F4157   1.386       .  S
C4154      F4158   1.383       .  S
C4154      F4159   1.383       .  S
C4154      F4160   1.385       .  S
C4161      C4162   1.431       .  A
C4161      C4166   1.407       .  A
C4161      H4168   1.073       .  S
C4162      C4163   1.451       .  A
C4163      C4170   1.529       .  S
C4163      C4164   1.415       .  A
C4164      C4165   1.399       .  A
C4164      H4169   1.085       .  S
C4165      C4166   1.405       .  A
C4166      C4167   1.523       .  S
C4167      F4171   1.384       .  S
C4167      F4172   1.383       .  S
C4167      F4173   1.384       .  S
C4170      F4174   1.384       .  S
C4170      F4175   1.372       .  S
C4170      F4176   1.383       .  S
C4177      C4178   1.429       .  A
C4177      C4182   1.408       .  A
C4177      H4184   1.072       .  S
C4178      C4179   1.456       .  A
C4179      C4186   1.531       .  S
C4179      C4180   1.415       .  A
C4180      C4181   1.394       .  A
C4180      H4185   1.082       .  S
C4181      C4182   1.408       .  A
C4182      C4183   1.520       .  S
C4183      F4187   1.385       .  S
C4183      F4188   1.383       .  S
C4183      F4189   1.382       .  S
C4186      F4190   1.378       .  S
C4186      F4191   1.363       .  S
C4186      F4192   1.385       .  S
C4193      C4198   1.410       .  A
C4193      H4200   1.082       .  S
C4194      C4195   1.464       .  A
C4196      C4197   1.411       .  A
C4196      H4201   1.082       .  S
C4198      C4199   1.529       .  S
C4199      F4203   1.380       .  S
C4199      F4204   1.364       .  S
C4199      F4205   1.382       .  S
C4202      F4206   1.359   1_655  S
C4202      F4207   1.386       .  S
C4202      F4208   1.383       .  S
C4209      C4210   1.429       .  A
C4209      C4214   1.406   1_556  A
C4209      H4216   1.067       .  S
C4210      C4211   1.460       .  A
C4211      C4218   1.534       .  S
C4211      C4212   1.421       .  A
C4212      C4213   1.393       .  A
C4212      H4217   1.082       .  S
C4213      C4214   1.400   1_556  A
C4215      F4219   1.383       .  S
C4215      F4220   1.381       .  S
C4218      F4222   1.385       .  S
C4218      F4223   1.373       .  S
C4218      F4224   1.380       .  S
C4225      C4226   1.384       .  A
C4225      C4230   1.405       .  A
C4225      H4232   1.084       .  S
C4226      C4227   1.398       .  A
C4227      C4234   1.520       .  S
C4227      C4228   1.402       .  A
C4228      C4229   1.425       .  A
C4228      H4233   1.069       .  S
C4229      C4230   1.459       .  A
C4230      C4231   1.531       .  S
C4231      F4235   1.386       .  S
C4231      F4236   1.373       .  S
C4231      F4237   1.379       .  S
C4234      F4238   1.383       .  S
C4234      F4239   1.383       .  S
C4234      F4240   1.385       .  S
C4241      C4242   1.428   1_554  A
C4241      C4246   1.419       .  A
C4241      H4248   1.078       .  S
C4242      C4243   1.457       .  A
C4243      C4250   1.523       .  S
C4243      C4244   1.411       .  A
C4244      C4245   1.386       .  A
C4245      C4246   1.410   1_556  A
C4246      C4247   1.515       .  S
C4247      F4251   1.385       .  S
C4247      F4252   1.383       .  S
C4247      F4253   1.383       .  S
C4257      C4258   1.419       .  A
C4259      C4266   1.549       .  S
C4259      C4260   1.416       .  A
C4260      H4265   1.076       .  S
C4261      C4262   1.457       .  A
C4263      F4267   1.386       .  S
C4263      F4269   1.367   1_655  S
C4266      F4270   1.386       .  S
C4266      F4271   1.372       .  S
C4266      F4272   1.376       .  S
C4273      C4274   1.426       .  A
C4273      C4278   1.411       .  A
C4273      H4280   1.071       .  S
C4274      C4275   1.454       .  A
C4276      H4281   1.083       .  S
C4277      C4278   1.409       .  A
C4278      C4279   1.521   1_655  S
C4279      F4283   1.385       .  S
C4279      F4284   1.383   1_455  S
C4279      F4285   1.383       .  S
C4282      F4286   1.362       .  S
C4282      F4287   1.386       .  S
C4282      F4288   1.379       .  S
C4289      C4290   1.429       .  A
C4289      C4294   1.407       .  A
C4289      H4296   1.082       .  S
C4290      C4291   1.464       .  A
C4291      C4298   1.539       .  S
C4291      C4292   1.405       .  A
C4292      C4293   1.383       .  A
C4292      H4297   1.088       .  S
C4293      C4294   1.404       .  A
C4294      C4295   1.514       .  S
C4295      F4299   1.385       .  S
C4295      F4300   1.380       .  S
C4295      F4301   1.383       .  S
C4298      F4302   1.380       .  S
C4298      F4303   1.364       .  S
C4298      F4304   1.388       .  S
C4305      C4310   1.412       .  A
C4305      H4312   1.087       .  S
C4306      C4307   1.406       .  A
C4307      C4314   1.518       .  S
C4307      C4308   1.415       .  A
C4308      C4309   1.436       .  A
C4308      H4313   1.074       .  S
C4310      C4311   1.516       .  S
C4311      F4315   1.384       .  S
C4311      F4316   1.384       .  S
C4311      F4317   1.351       .  S
C4314      F4318   1.381       .  S
C4314      F4319   1.384       .  S
C4314      F4320   1.385       .  S
C4321      C4322   1.413       .  A
C4321      C4326   1.417       .  A
C4321      H4328   1.071       .  S
C4322      C4323   1.453       .  A
C4323      C4330   1.541       .  S
C4323      C4324   1.426       .  A
C4324      C4325   1.417       .  A
C4324      H4329   1.056       .  S
C4325      C4326   1.453       .  A
C4326      C4327   1.539       .  S
C4327      F4331   1.387       .  S
C4327      F4332   1.374       .  S
C4327      F4333   1.378       .  S
C4330      F4334   1.376       .  S
C4330      F4335   1.372       .  S
C4330      F4336   1.385       .  S
C4337      C4338   1.420       .  A
C4337      C4342   1.402       .  A
C4337      H4344   1.071       .  S
C4338      C4339   1.451       .  A
C4339      C4346   1.529       .  S
C4339      C4340   1.412       .  A
C4340      C4341   1.394       .  A
C4340      H4345   1.086       .  S
C4341      C4342   1.409       .  A
C4342      C4343   1.522       .  S
C4343      F4347   1.385       .  S
C4343      F4348   1.384       .  S
C4343      F4349   1.382       .  S
C4346      F4350   1.382       .  S
C4346      F4351   1.370       .  S
C4346      F4352   1.386       .  S
C4353      C4354   1.395       .  A
C4353      C4358   1.407       .  A
C4353      H4360   1.082       .  S
C4354      C4355   1.410       .  A
C4355      C4362   1.520       .  S
C4355      C4356   1.413       .  A
C4356      C4357   1.431       .  A
C4356      H4361   1.070       .  S
C4357      C4358   1.449       .  A
C4358      C4359   1.525       .  S
C4359      F4363   1.386       .  S
C4359      F4364   1.363       .  S
C4359      F4365   1.381       .  S
C4362      F4366   1.383       .  S
C4362      F4367   1.383       .  S
C4362      F4368   1.385       .  S
C4369      C4370   1.428       .  A
C4369      C4374   1.407       .  A
C4369      H4376   1.068       .  S
C4370      C4371   1.451       .  A
C4371      C4378   1.535       .  S
C4371      C4372   1.417       .  A
C4372      C4373   1.401       .  A
C4372      H4377   1.081       .  S
C4373      C4374   1.409       .  A
C4374      C4375   1.523       .  S
C4375      F4379   1.376       .  S
C4375      F4380   1.383       .  S
C4375      F4381   1.382       .  S
C4378      F4382   1.385       .  S
C4378      F4383   1.374       .  S
C4378      F4384   1.380       .  S
