geometry optimzed in LAMMPS
_audit_creation_date              2020-11-30 
_audit_creation_method            'lammps2cif' 
_symmetry_space_group_name_H-M    'P1' 
_symmetry_Int_Tables_number       1 
_symmetry_cell_setting            triclinic 
loop_ 
_symmetry_equiv_pos_as_xyz 
  x,y,z 
_cell_length_a                    46.97009786 
_cell_length_b                    31.084159388185153 
_cell_length_c                    39.030336827537326 
_cell_angle_alpha                 89.79105662167572 
_cell_angle_beta                  89.65686544133331 
_cell_angle_gamma                 90.02586862513553 
loop_ 
_atom_site_label 
_atom_site_type_symbol 
_atom_site_fract_x 
_atom_site_fract_y 
_atom_site_fract_z 
_atom_site_charge 
O1          O  0.60785492  0.26304408  0.38374035    -0.78100
C2          C  0.54458491  0.34927193  0.33487808     0.83000
O3          O  0.62368309  0.28165923  0.25663617    -0.79200
O4          O  0.61146231  0.43870414  0.29750064    -0.80700
O5          O  0.65446471  0.38907111  0.39386840    -0.80400
O6          O  0.65194518  0.28526632  0.39400599    -0.79100
Zn7        Zn  0.59779099  0.29264016  0.33844321     1.55700
O8          O  0.61345057  0.42237592  0.38316362    -0.80500
Cd9        Cd  0.65532575  0.33730946  0.36128912     1.59700
Cd10       Cd  0.63667196  0.33960410  0.28005795     1.59600
O11         O  0.69380761  0.33746771  0.33553229    -0.80500
O12         O  0.62294186  0.34033731  0.32878337    -1.91000
Cd13       Cd  0.60235489  0.39525660  0.33648574     1.59900
O14         O  0.68115410  0.34144080  0.28058564    -0.80400
O15         O  0.55896866  0.38407582  0.33401985    -0.79100
C16         C  0.61085267  0.24892163  0.26954584     0.83500
C17         C  0.63060212  0.26167661  0.40154332     0.83100
O18         O  0.55662736  0.31267680  0.33805592    -0.78000
C19         C  0.63598919  0.41770482  0.40090847     0.83900
O20         O  0.60146070  0.24943164  0.30027689    -0.78100
C21         C  0.70024151  0.34051728  0.30382475     0.84100
C22         C  0.61646525  0.43296377  0.26568348     0.84400
O23         O  0.62310334  0.39587699  0.25375899    -0.80500
C24         C  0.58971151  0.09133947  0.18844712    -0.02000
C25         C  0.65751286  0.05048664  0.50090022     0.86900
C26         C  0.68874453  0.06351283  0.50717182    -0.53300
C27         C  0.69328088  0.10230265  0.02537926     0.09900
C28         C  0.66456582  0.12321659  0.03544724     0.20800
C29         C  0.64414471  0.04939933  0.53658576    -0.54000
C30         C  0.64767073  0.08698827  0.05423327     0.10000
C31         C  0.64455434  0.08986179  0.48334418    -0.53600
C32         C  0.64755680  0.12754055  0.50058547     0.10500
H33         H  0.70708360  0.04512203  0.49906534     0.15000
H34         H  0.66661906  0.15348654  0.05024736     0.00800
H35         H  0.63369096  0.02201445  0.04494220     0.15300
H36         H  0.63514736  0.08833246  0.45798822     0.15100
O37         O  0.89901111  0.23137036  0.13208198    -0.78100
C38         C  0.96593667  0.15759824  0.08872589     0.83000
O39         O  0.88368386  0.20852100  0.50288687    -0.79200
O40         O  0.90999435  0.05706567  0.05044282    -0.80700
O41         O  0.85694355  0.09856650  0.14382713    -0.80400
O42         O  0.85801922  0.20145039  0.14766179    -0.79100
Zn43       Zn  0.90865343  0.20399977  0.08633305     1.55700
O44         O  0.89986530  0.06986292  0.13584550    -0.80500
Cd45       Cd  0.85526412  0.15170161  0.11308005     1.59700
Cd46       Cd  0.87309156  0.14823846  0.03171544     1.59600
O47         O  0.81646082  0.15134635  0.08867038    -0.80500
O48         O  0.88757609  0.15145625  0.07994037    -1.91000
Cd49       Cd  0.91239821  0.10091490  0.09044990     1.59900
O50         O  0.82859522  0.14443804  0.03365054    -0.80400
O51         O  0.95454519  0.12066840  0.09297404    -0.79100
C52         C  0.89194761  0.24204331  0.01685969     0.83500
C53         C  0.87801294  0.22822836  0.15284845     0.83100
O54         O  0.95083408  0.19140854  0.08515323    -0.78000
C55         C  0.87612397  0.07158832  0.15193537     0.83900
O56         O  0.89998422  0.24597391  0.04788630    -0.78100
C57         C  0.80969038  0.14666830  0.05733728     0.84100
C58         C  0.90076175  0.05792206  0.01972031     0.84400
O59         O  0.88669259  0.09273702  0.50638233    -0.80500
C60         C  0.91947293  0.40148527  0.43591907    -0.02000
C61         C  0.85049460  0.43957390  0.24952192     0.86900
C62         C  0.81943660  0.42499667  0.25534790    -0.53300
C63         C  0.81651117  0.38717233  0.27307814     0.09900
C64         C  0.84515674  0.36719368  0.28380063     0.20800
C65         C  0.86343310  0.44079797  0.28544129    -0.54000
C66         C  0.86056452  0.40332133  0.30351026     0.10000
C67         C  0.86420772  0.40060278  0.23220303    -0.53600
C68         C  0.86181523  0.36286390  0.24978112     0.10500
H69         H  0.80087785  0.44139988  0.24595284     0.15000
H70         H  0.84331423  0.33642187  0.29815120     0.00800
H71         H  0.87465273  0.46859299  0.29541726     0.15300
H72         H  0.87354905  0.40242249  0.20669264     0.15100
O73         O  0.45280031  0.13544394  0.16574563    -0.78100
C74         C  0.37576257  0.18217433  0.10587660     0.83000
O75         O  0.38564524  0.16425929  0.24905579    -0.79200
O76         O  0.31537440  0.10227428  0.16726361    -0.80700
O77         O  0.39952810  0.02247341  0.12173175    -0.80400
O78         O  0.45134401  0.06444696  0.17350303    -0.79100
Zn79       Zn  0.41111322  0.15371513  0.16709032     1.55700
O80         O  0.35785045  0.05185168  0.10882651    -0.80500
Cd81       Cd  0.40834351  0.05110430  0.16921721     1.59700
Cd82       Cd  0.37095561  0.10761602  0.22458677     1.59600
O83         O  0.39856766  0.00908915  0.20852036    -0.80500
O84         O  0.38645071  0.10477783  0.17652044    -1.91000
Cd85       Cd  0.35457316  0.10204401  0.14333378     1.59900
O86         O  0.38209060  0.05061431  0.25103363    -0.80400
O87         O  0.35636740  0.15489266  0.11270845    -0.79100
C88         C  0.39941936  0.19657277  0.23690186     0.83500
C89         C  0.46527424  0.09955619  0.17099921     0.83100
O90         O  0.39876470  0.18392386  0.12316690    -0.78000
C91         C  0.37781913  0.02541115  0.10222060     0.83900
O92         O  0.40872134  0.19641969  0.20610552    -0.78100
C93         C  0.39064361  0.01420566  0.23957568     0.84100
C94         C  0.30784970  0.10765454  0.19837450     0.84400
O95         O  0.32623464  0.11071231  0.22235510    -0.80500
C96         C  0.41993411  0.35598396  0.31675154    -0.02000
C97         C  0.35050647  0.31401635  0.00497767     0.86900
C98         C  0.31890909  0.32537992  0.99931116    -0.53300
C99         C  0.31450052  0.36305176  0.98180394     0.09900
C100        C  0.34507419  0.38565292  0.46982574     0.20800
C101        C  0.36386734  0.31411008  0.96917675    -0.54000
C102        C  0.36279531  0.35111631  0.45095461     0.10000
C103        C  0.36224474  0.35421995  0.02244498    -0.53600
C104        C  0.35867050  0.39161419  0.00493346     0.10500
H105        H  0.30124925  0.30671718  0.00902284     0.15000
H106        H  0.34220470  0.41604598  0.45520300     0.00800
H107        H  0.37917217  0.28729107  0.45971649     0.15300
H108        H  0.37143627  0.35347728  0.04793869     0.15100
O109        O  0.10803840  0.49706619  0.37050717    -0.78100
C110        C  0.04380601  0.41082250  0.41508269     0.83000
O111        O  0.12257630  0.47150115  0.99816144    -0.79200
O112        O  0.10818608  0.31886446  0.44838135    -0.80700
O113        O  0.15531354  0.37167016  0.35546091    -0.80400
O114        O  0.15216243  0.47541454  0.35887004    -0.79100
Zn115      Zn  0.09790584  0.46515554  0.41437799     1.55700
O116        O  0.11359430  0.33973185  0.36532210    -0.80500
Cd117      Cd  0.15604267  0.42172914  0.38960222     1.59700
Cd118      Cd  0.13803492  0.41376767  0.47044871     1.59600
O119        O  0.19498489  0.41900427  0.41424178    -0.80500
O120        O  0.12337622  0.41723145  0.42223830    -1.91000
Cd121      Cd  0.10134508  0.36483692  0.41178755     1.59900
O122        O  0.18254863  0.41042124  0.46900558    -0.80400
O123        O  0.05799544  0.37597754  0.41373269    -0.79100
C124        C  0.11254983  0.50481181  0.48366419     0.83500
C125        C  0.13077558  0.49928475  0.35249268     0.83100
O126        O  0.05614493  0.44734606  0.41417661    -0.78000
C127        C  0.13643618  0.34398892  0.34784865     0.83900
O128        O  0.10206704  0.50540649  0.45364801    -0.78100
C129        C  0.20159706  0.41265493  0.44550030     0.84100
C130        C  0.11521281  0.31967154  0.47979397     0.84400
O131        O  0.12111798  0.35374751  0.99640757    -0.80500
C132        C  0.08962287  0.16219669  0.06375612    -0.02000
C133        C  0.15930404  0.20696750  0.25209522     0.86900
C134        C  0.18986686  0.19163755  0.24503563    -0.53300
C135        C  0.19145161  0.15363290  0.22774896     0.09900
C136        C  0.16217445  0.13374974  0.21937189     0.20800
C137        C  0.14529962  0.20770870  0.21697492    -0.54000
C138        C  0.14580437  0.16946144  0.19942086     0.10000
C139        C  0.14562280  0.16901718  0.27113601    -0.53600
C140        C  0.14697871  0.13084753  0.25440303     0.10500
H141        H  0.20901602  0.20744131  0.25353148     0.15000
H142        H  0.16384210  0.10192434  0.20708509     0.00800
H143        H  0.13615579  0.23726775  0.20731584     0.15300
H144        H  0.13705284  0.17172805  0.29697741     0.15100
C145        C  0.12170337  0.12759133  0.11142839    -0.20900
C146        C  0.10425602  0.16152649  0.09952918    -0.08900
C147        C  0.09862721  0.19521869  0.12286027     0.30000
C148        C  0.11090749  0.19583511  0.15516703    -0.20900
C149        C  0.13088849  0.16459597  0.16547149    -0.08900
C150        C  0.13579829  0.12990848  0.14296558     0.30000
F151        F  0.15445347  0.09814504  0.15048190    -0.19400
H152        H  0.12498665  0.09872761  0.09673937     0.18300
H153        H  0.10436621  0.22169219  0.17177702     0.18300
F154        F  0.08144555  0.22859344  0.11429457    -0.19400
C155        C  0.16947071  0.30985375  0.30570433    -0.20900
C156        C  0.14175918  0.31478219  0.31882491    -0.08900
C157        C  0.11973664  0.28969594  0.30525221     0.30000
C158        C  0.12593462  0.25754029  0.28170420    -0.20900
C159        C  0.15422053  0.24865034  0.27172076    -0.08900
C160        C  0.17575246  0.27746647  0.28212537     0.30000
F161        F  0.20267816  0.27558033  0.26972105    -0.19400
H162        H  0.18664469  0.33014989  0.31460121     0.18300
H163        H  0.10861356  0.23755690  0.27272977     0.18300
F164        F  0.09229694  0.29517966  0.31545321    -0.19400
C165        C  0.11022880  0.05633922  0.31666450    -0.20900
C166        C  0.13266318  0.53079658  0.32387947    -0.08900
C167        C  0.15598799  0.53072257  0.30088092     0.30000
C168        C  0.16028834  0.05917814  0.27749834    -0.20900
C169        C  0.13939439  0.09065482  0.27267626    -0.08900
C170        C  0.11375361  0.08787652  0.29136353     0.30000
F171        F  0.09277900  0.11726508  0.28644460    -0.19400
H172        H  0.09076672  0.05615140  0.33168209     0.18300
H173        H  0.18022058  0.06091056  0.26344132     0.18300
F174        F  0.17636197  0.49985277  0.30250348    -0.19400
C175        C  0.12422645  0.27035857  0.03203784    -0.20900
C176        C  0.10857108  0.27820337  0.00217110    -0.08900
C177        C  0.09038681  0.24534366  0.99034098     0.30000
C178        C  0.08648167  0.20746746  0.00923457    -0.20900
C179        C  0.09960818  0.20122895  0.04129165    -0.08900
C180        C  0.12063230  0.23197120  0.05081505     0.30000
F181        F  0.13852261  0.22518957  0.07741029    -0.19400
H182        H  0.13970997  0.29373087  0.04061992     0.18300
H183        H  0.07128708  0.18410685  0.99994156     0.18300
F184        F  0.07926283  0.25034042  0.45749481    -0.19400
C185        C  0.12920292  0.06859303  0.01653697    -0.20900
C186        C  0.10656648  0.04279939  0.00538062    -0.08900
C187        C  0.07871151  0.05772002  0.01010286     0.30000
C188        C  0.07347501  0.09602920  0.02754111    -0.20900
C189        C  0.09579730  0.12080363  0.04186639    -0.08900
C190        C  0.12395249  0.10788988  0.03336271     0.30000
F191        F  0.14649331  0.13276298  0.04216060    -0.19400
H192        H  0.15094749  0.05904323  0.01117981     0.18300
H193        H  0.05153943  0.10626010  0.02881650     0.18300
F194        F  0.05478819  0.53658767  0.99899098    -0.19400
C195        C  0.28179247  0.39366666  0.43825341    -0.20900
C196        C  0.28829595  0.38017103  0.47161780    -0.08900
C197        C  0.26339415  0.37578268  0.00005855     0.30000
C198        C  0.23551157  0.38806810  0.99237748    -0.20900
C199        C  0.23203775  0.40527129  0.45464466    -0.08900
C200        C  0.25395973  0.40581170  0.42964767     0.30000
F201        F  0.24848100  0.41666291  0.39662390    -0.19400
H202        H  0.29804217  0.39314865  0.41845724     0.18300
H203        H  0.21900175  0.38246710  0.01136959     0.18300
F204        F  0.26869115  0.35931750  0.03163886    -0.19400
C205        C  0.41999126  0.36291361  0.38348696    -0.20900
C206        C  0.40487876  0.35661423  0.35255885    -0.08900
C207        C  0.37473520  0.35434579  0.35503020     0.30000
C208        C  0.36092172  0.35436880  0.38699188    -0.20900
C209        C  0.37663255  0.35723221  0.41722513    -0.08900
C210        C  0.40619380  0.36196131  0.41525228     0.30000
F211        F  0.42181776  0.36539119  0.44427926    -0.19400
H212        H  0.44260392  0.36895943  0.38377796     0.18300
H213        H  0.33800237  0.35075255  0.38817091     0.18300
F214        F  0.35860722  0.35092859  0.32644113    -0.19400
C215        C  0.25712487  0.11726364  0.17945143    -0.20900
C216        C  0.27691446  0.11249362  0.20630070    -0.08900
C217        C  0.26697337  0.11583080  0.24031634     0.30000
C218        C  0.23855836  0.12646132  0.24701884    -0.20900
C219        C  0.21939344  0.13366526  0.22015656    -0.08900
C220        C  0.22863513  0.12782435  0.18628007     0.30000
F221        F  0.21076889  0.13563091  0.15976966    -0.19400
H222        H  0.26395492  0.11488401  0.15297619     0.18300
H223        H  0.23169516  0.13078192  0.27333658     0.18300
F224        F  0.28482928  0.11043132  0.26718814    -0.19400
C225        C  0.38548399  0.27058821  0.03964783    -0.20900
C226        C  0.35777963  0.27390652  0.02597326    -0.08900
C227        C  0.33783440  0.24181060  0.03494741     0.30000
C228        C  0.34423591  0.21186107  0.06043379    -0.20900
C229        C  0.37071529  0.21230491  0.07711201    -0.08900
C230        C  0.39171065  0.24112634  0.06559142     0.30000
F231        F  0.41798648  0.24181102  0.07986387    -0.19400
H232        H  0.40195278  0.29304889  0.03184061     0.18300
H233        H  0.32805997  0.18851365  0.06738675     0.18300
F234        F  0.31260263  0.23765904  0.01867857    -0.19400
C235        C  0.39562189  0.46665034  0.06535667    -0.20900
C236        C  0.37534424  0.99687747  0.07162112    -0.08900
C237        C  0.35035274  0.99587294  0.05151263     0.30000
C238        C  0.34481906  0.46320241  0.02833159    -0.20900
C239        C  0.36609182  0.43268503  0.02198433    -0.08900
C240        C  0.39215242  0.43616423  0.03944983     0.30000
F241        F  0.41353558  0.40781582  0.03314435    -0.19400
H242        H  0.41540364  0.46698863  0.07946325     0.18300
H243        H  0.32455025  0.46093671  0.01535168     0.18300
F244        F  0.32864290  0.02371741  0.05739076    -0.19400
C245        C  0.41349531  0.43818796  0.31323543    -0.21300
C246        C  0.40837222  0.39725078  0.29838683    -0.08900
C247        C  0.39130771  0.39671627  0.26846382     0.30000
C248        C  0.38449312  0.43493070  0.25142451    -0.20900
C249        C  0.39258379  0.47504954  0.26437114    -0.08900
C250        C  0.40597430  0.47657138  0.29637974     0.30000
F251        F  0.41334482  0.01560001  0.30802752    -0.19400
H252        H  0.42496464  0.44038819  0.33715489     0.18300
H253        H  0.37299495  0.43312025  0.22748243     0.18300
F254        F  0.38017815  0.35999978  0.25560902    -0.19400
C255        C  0.42076637  0.27016408  0.24454377    -0.20900
C256        C  0.40494982  0.23569731  0.25837125    -0.08900
C257        C  0.39490325  0.23960787  0.29229298     0.30000
C258        C  0.39948828  0.27758237  0.31101161    -0.20900
C259        C  0.41392182  0.31344144  0.29651640    -0.08900
C260        C  0.42562087  0.30781346  0.26325726     0.30000
F261        F  0.44119027  0.33955092  0.24821471    -0.19400
H262        H  0.42950542  0.26821273  0.21886066     0.18300
H263        H  0.39204031  0.27794453  0.33721943     0.18300
F264        F  0.38080451  0.20664722  0.30772091    -0.19400
C265        C  0.96477181  0.43702811  0.41243038    -0.20900
C266        C  0.95255614  0.40269634  0.43155827    -0.08900
C267        C  0.97171019  0.37322595  0.44707558     0.30000
C268        C  0.00094580  0.37547608  0.44024189    -0.20900
C269        C  0.01249698  0.40838585  0.41981169    -0.08900
C270        C  0.99415699  0.43972380  0.40641533     0.30000
F271        F  0.00449399  0.47239042  0.38679850    -0.19400
H272        H  0.95119323  0.46134231  0.40116338     0.18300
H273        H  0.01487060  0.35222431  0.45233003     0.18300
F274        F  0.96314539  0.34376390  0.47062646    -0.19400
C275        C  0.87418818  0.40353572  0.39928452    -0.20900
C276        C  0.90421567  0.39955066  0.40045274    -0.08900
C277        C  0.91833764  0.38981075  0.36894621     0.30000
C278        C  0.90357172  0.38988705  0.33802354    -0.20900
C279        C  0.87437860  0.39773832  0.33715480    -0.08900
C280        C  0.85953527  0.40379611  0.36801964     0.30000
F281        F  0.83111450  0.41154951  0.36786290    -0.19400
H282        H  0.86221788  0.40852295  0.42274212     0.18300
H283        H  0.91510975  0.38387931  0.31438492     0.18300
F284        F  0.94601112  0.37759528  0.36734216    -0.19400
C285        C  0.84130345  0.03664041  0.19130333    -0.20900
C286        C  0.86969882  0.04155323  0.18055026    -0.08900
C287        C  0.89090728  0.01806465  0.19754833     0.30000
C288        C  0.88494848  0.48851222  0.21854718    -0.20900
C289        C  0.85643410  0.48027423  0.22832821    -0.08900
C290        C  0.83517257  0.50803034  0.21539337     0.30000
F291        F  0.80778335  0.50672661  0.22616871    -0.19400
H292        H  0.82450529  0.05531532  0.17952885     0.18300
H293        H  0.90201902  0.46904414  0.22887618     0.18300
F294        F  0.91881402  0.02314244  0.18925909    -0.19400
C295        C  0.89790684  0.28810487  0.18791408    -0.20900
C296        C  0.87652049  0.25716271  0.18305216    -0.08900
C297        C  0.85329360  0.25607720  0.20623904     0.30000
C298        C  0.85002265  0.28844869  0.23083878    -0.20900
C299        C  0.86989055  0.32196975  0.23290350    -0.08900
C300        C  0.89477059  0.32000516  0.21268539     0.30000
F301        F  0.91517583  0.35077146  0.21525475    -0.19400
H302        H  0.91651834  0.28901966  0.17141235     0.18300
H303        H  0.83081281  0.28914163  0.24632381     0.18300
F304        F  0.83288468  0.22530421  0.20403786    -0.19400
C305        C  0.89348239  0.01694270  0.46418661    -0.20900
C306        C  0.90339911  0.01955124  0.49803391    -0.08900
C307        C  0.92048853  0.48462178  0.50983403     0.30000
C308        C  0.92465949  0.44793869  0.48969338    -0.20900
C309        C  0.91307808  0.44399213  0.45646679    -0.08900
C310        C  0.89943984  0.48132871  0.44303223     0.30000
F311        F  0.89216404  0.48461530  0.40959694    -0.19400
H312        H  0.88319863  0.04448562  0.45255433     0.18300
H313        H  0.93695142  0.42173523  0.50042925     0.18300
F314        F  0.92872867  0.48330979  0.04319420    -0.19400
C315        C  0.89284117  0.36174896  0.48621253    -0.20900
C316        C  0.90868761  0.36007832  0.45525970    -0.08900
C317        C  0.91380142  0.31837786  0.44153330     0.30000
C318        C  0.90670980  0.28094828  0.46002368    -0.20900
C319        C  0.89421007  0.28357075  0.49260784    -0.08900
C320        C  0.88653874  0.32437872  0.50504010     0.30000
F321        F  0.87296289  0.32822280  0.53568830    -0.19400
H322        H  0.88541383  0.39183989  0.49665159     0.18300
H323        H  0.91043938  0.24779094  0.95045075     0.18300
F324        F  0.92762577  0.31354817  0.41121389    -0.19400
C325        C  0.00982357  0.19820954  0.07204534    -0.20900
C326        C  0.99741336  0.16118961  0.08634378    -0.08900
C327        C  0.01533704  0.12755091  0.09689098     0.30000
C328        C  0.04467048  0.12990757  0.09094170    -0.20900
C329        C  0.05709211  0.16479307  0.07281556    -0.08900
C330        C  0.03911829  0.20058543  0.06581947     0.30000
F331        F  0.04934426  0.23906722  0.05489814    -0.19400
H332        H  0.99673628  0.22553967  0.06514916     0.18300
H333        H  0.05775922  0.10304460  0.09891145     0.18300
F334        F  0.00459772  0.09201848  0.11261696    -0.19400
C335        C  0.72887975  0.13675070  0.06469685    -0.20900
C336        C  0.72201862  0.12059662  0.03229687    -0.08900
C337        C  0.74214055  0.11788671  0.50454227     0.30000
C338        C  0.77167372  0.12907091  0.01505564    -0.20900
C339        C  0.77910097  0.14174034  0.04832153    -0.08900
C340        C  0.75714612  0.14680251  0.07290763     0.30000
F341        F  0.76295170  0.16024973  0.10517338    -0.19400
H342        H  0.71263089  0.13992784  0.08418174     0.18300
H343        H  0.78628066  0.12543483  0.49207812     0.18300
F344        F  0.73602360  0.10338926  0.47265550    -0.19400
C345        C  0.54419413  0.12610173  0.16511175    -0.20900
C346        C  0.55657206  0.09367847  0.18586461    -0.08900
C347        C  0.53755762  0.06728611  0.20502877     0.30000
C348        C  0.50822867  0.06883093  0.19910877    -0.20900
C349        C  0.49654317  0.09851880  0.17599843    -0.08900
C350        C  0.51475594  0.12816511  0.15982481     0.30000
F351        F  0.50427048  0.15831241  0.13805731    -0.19400
H352        H  0.55762639  0.14889460  0.15160248     0.18300
H353        H  0.49440654  0.04758326  0.21369493     0.18300
F354        F  0.54654068  0.04188538  0.23112399    -0.19400
C355        C  0.60405160  0.08083080  0.09023268    -0.20900
C356        C  0.63310397  0.09071229  0.08799990    -0.08900
C357        C  0.64823229  0.09740685  0.11837010     0.30000
C358        C  0.63411559  0.09638921  0.15013973    -0.20900
C359        C  0.60433928  0.08993238  0.15253799    -0.08900
C360        C  0.58995524  0.07912358  0.12181325     0.30000
F361        F  0.56290263  0.06386034  0.12181738    -0.19400
H362        H  0.59233924  0.07280875  0.06727954     0.18300
H363        H  0.64641998  0.10162500  0.17312507     0.18300
F364        F  0.67683724  0.10265843  0.11761857    -0.19400
C365        C  0.76684800  0.37133088  0.25419955    -0.20900
C366        C  0.78796915  0.36773636  0.27944138    -0.08900
C367        C  0.78064514  0.34944599  0.31126927     0.30000
C368        C  0.75225895  0.33859028  0.31849565    -0.20900
C369        C  0.73072430  0.34537865  0.29406025    -0.08900
C370        C  0.73857641  0.36061250  0.26134014     0.30000
F371        F  0.71880114  0.36775597  0.23674889    -0.19400
H372        H  0.77203062  0.38403864  0.22905250     0.18300
H373        H  0.74698243  0.32639756  0.34377526     0.18300
F374        F  0.80038058  0.34465689  0.33621067    -0.19400
C375        C  0.61877646  0.46719714  0.44699453    -0.20900
C376        C  0.64140403  0.44684627  0.42998795    -0.08900
C377        C  0.66762268  0.95493725  0.43997992     0.30000
C378        C  0.67359376  0.98577246  0.46474557    -0.20900
C379        C  0.65164434  0.01021476  0.47978499    -0.08900
C380        C  0.62319193  0.99970016  0.47156968     0.30000
F381        F  0.60110461  0.02089262  0.48647278    -0.19400
H382        H  0.59696721  0.46004661  0.44017337     0.18300
H383        H  0.69570785  0.99092301  0.47059997     0.18300
F384        F  0.68978455  0.93418266  0.42487135    -0.19400
C385        C  0.65784464  0.23061842  0.45107527    -0.20900
C386        C  0.63275765  0.23177126  0.43138381    -0.08900
C387        C  0.61059956  0.20301556  0.43987789     0.30000
C388        C  0.61453979  0.17179922  0.46531640    -0.20900
C389        C  0.64048527  0.16851042  0.48291679    -0.08900
C390        C  0.66169195  0.19940068  0.47662583     0.30000
F391        F  0.68712773  0.19707963  0.49282198    -0.19400
H392        H  0.67515016  0.25270824  0.44570029     0.18300
H393        H  0.59790438  0.14824084  0.46978900     0.18300
F394        F  0.58566076  0.20335964  0.42249659    -0.19400
C395        C  0.62470516  0.00972518  0.25220952    -0.20900
C396        C  0.61371543  0.47086400  0.24256389    -0.08900
C397        C  0.59587231  0.97021377  0.21228822     0.30000
C398        C  0.59050600  0.00861889  0.19426190    -0.20900
C399        C  0.60021240  0.04900696  0.20639377    -0.08900
C400        C  0.61995844  0.04788185  0.23379514     0.30000
F401        F  0.63553280  0.08286005  0.24252381    -0.19400
H402        H  0.63849547  0.01054809  0.27435097     0.18300
H403        H  0.57691505  0.00722825  0.17199921     0.18300
F404        F  0.58327594  0.43268831  0.20422310    -0.19400
C405        C  0.58922106  0.13528185  0.24370539    -0.20900
C406        C  0.59705797  0.13317234  0.20876533    -0.08900
C407        C  0.60749900  0.17187041  0.19355389     0.30000
C408        C  0.61248746  0.20868912  0.21344983    -0.20900
C409        C  0.60626482  0.20922071  0.24867686    -0.08900
C410        C  0.59441209  0.17180450  0.26351220     0.30000
F411        F  0.58767575  0.17010751  0.29735622    -0.19400
H412        H  0.57942323  0.10774957  0.25609398     0.18300
H413        H  0.62049574  0.23740691  0.20088992     0.18300
F414        F  0.61099762  0.17603487  0.15919489    -0.19400
C415        C  0.50122564  0.38495641  0.31140149    -0.20900
C416        C  0.51324605  0.35147611  0.33066765    -0.08900
C417        C  0.49527338  0.31922346  0.34368457     0.30000
C418        C  0.46588002  0.32146210  0.33850388    -0.20900
C419        C  0.45312282  0.35612482  0.32055773    -0.08900
C420        C  0.47187652  0.38684615  0.30545560     0.30000
F421        F  0.46287853  0.41708869  0.28291682    -0.19400
H422        H  0.51482351  0.40902196  0.29956716     0.18300
H423        H  0.45269594  0.29617905  0.34931411     0.18300
F424        F  0.50598924  0.28577808  0.36196257    -0.19400
O425        O  0.60475821  0.26465961  0.88602232    -0.78100
C426        C  0.54097521  0.35071489  0.83557512     0.83000
O427        O  0.61962257  0.28280109  0.75825142    -0.79200
O428        O  0.60815154  0.43984151  0.79732451    -0.80700
O429        O  0.65149922  0.39165791  0.89287649    -0.80400
O430        O  0.64871511  0.28797652  0.89540915    -0.79100
Zn431      Zn  0.59428701  0.29387059  0.84019802     1.55700
O432        O  0.61031737  0.42475909  0.88266555    -0.80500
Cd433      Cd  0.65181059  0.33893050  0.86163584     1.59700
Cd434      Cd  0.63305032  0.34063334  0.78080454     1.59600
O435        O  0.69008090  0.33740763  0.83569290    -0.80500
O436        O  0.61927470  0.34166547  0.82952312    -1.91000
Cd437      Cd  0.59876744  0.39681320  0.83654000     1.59900
O438        O  0.67755103  0.34079549  0.78074498    -0.80400
O439        O  0.55533715  0.38554511  0.83421433    -0.79100
C440        C  0.60731504  0.24977925  0.77139922     0.83500
C441        C  0.62773926  0.26395778  0.90349596     0.83100
O442        O  0.55305339  0.31420959  0.83945967    -0.78000
C443        C  0.63317689  0.42048919  0.89988029     0.83900
O444        O  0.59810614  0.25003093  0.80224814    -0.78100
C445        C  0.69660681  0.33949125  0.80398284     0.84100
C446        C  0.61379263  0.43416170  0.76565705     0.84400
O447        O  0.62038040  0.39698659  0.75388675    -0.80500
C448        C  0.58982476  0.09231381  0.68922259    -0.02000
C449        C  0.65921130  0.05198459  0.00025339     0.86900
C450        C  0.69026131  0.06475570  0.00762991    -0.53300
C451        C  0.69206272  0.10148037  0.52430922     0.09900
C452        C  0.66353753  0.12247051  0.53491846     0.20800
C453        C  0.64515642  0.05010845  0.03558638    -0.54000
C454        C  0.64697844  0.08671389  0.55462200     0.10000
C455        C  0.64655423  0.09170904  0.98289132    -0.53600
C456        C  0.64910328  0.12899731  0.00075437     0.10500
H457        H  0.70872984  0.04630890  0.00006520     0.15000
H458        H  0.66578003  0.15308631  0.54921632     0.00800
H459        H  0.63277539  0.02154764  0.54656256     0.15300
H460        H  0.63731660  0.09064277  0.95742836     0.15100
O461        O  0.89664952  0.23523299  0.63059105    -0.78100
C462        C  0.96465857  0.16071056  0.58663779     0.83000
O463        O  0.88360791  0.20575100  0.00501715    -0.79200
O464        O  0.90793111  0.05947778  0.55002571    -0.80700
O465        O  0.85386690  0.10256174  0.64152498    -0.80400
O466        O  0.85491679  0.20602310  0.64406589    -0.79100
Zn467      Zn  0.90717669  0.20728195  0.58495075     1.55700
O468        O  0.89725822  0.07494615  0.63463114    -0.80500
Cd469      Cd  0.85296768  0.15548670  0.61016297     1.59700
Cd470      Cd  0.87203590  0.15101015  0.52921781     1.59600
O471        O  0.81470561  0.15505941  0.58477106    -0.80500
O472        O  0.88585961  0.15491400  0.57780032    -1.91000
Cd473      Cd  0.91055767  0.10463098  0.58903921     1.59900
O474        O  0.82731374  0.14776074  0.52994121    -0.80400
O475        O  0.95304137  0.12390098  0.59091082    -0.79100
C476        C  0.89186995  0.24480666  0.51501662     0.83500
C477        C  0.87483480  0.23260099  0.65021257     0.83100
O478        O  0.94963869  0.19472292  0.58362303    -0.78000
C479        C  0.87325138  0.07617893  0.65021489     0.83900
O480        O  0.89907993  0.24884331  0.54631695    -0.78100
C481        C  0.80819529  0.15020662  0.55338915     0.84100
C482        C  0.89911129  0.05955423  0.51913387     0.84400
O483        O  0.88780534  0.09108792  0.00785181    -0.80500
C484        C  0.91638432  0.39958720  0.93747471    -0.02000
C485        C  0.84619148  0.43976591  0.75192082     0.86900
C486        C  0.81522844  0.42408755  0.75689705    -0.53300
C487        C  0.81266662  0.38589343  0.77421441     0.09900
C488        C  0.84141223  0.36655365  0.78519307     0.20800
C489        C  0.85861615  0.44068358  0.78812787    -0.54000
C490        C  0.85613672  0.40275148  0.80569158     0.10000
C491        C  0.86071017  0.40155692  0.73442427    -0.53600
C492        C  0.85842403  0.36337064  0.75131412     0.10500
H493        H  0.79653617  0.44000657  0.74725024     0.15000
H494        H  0.83972473  0.33542215  0.79909174     0.00800
H495        H  0.86945384  0.46855586  0.79856189     0.15300
H496        H  0.87023044  0.40404006  0.70903212     0.15100
O497        O  0.45307294  0.13385654  0.66602007    -0.78100
C498        C  0.37712241  0.18084238  0.60455968     0.83000
O499        O  0.38650050  0.16329976  0.74826892    -0.79200
O500        O  0.31559086  0.10501045  0.66712917    -0.80700
O501        O  0.39892404  0.02174884  0.62128314    -0.80400
O502        O  0.45153218  0.06270556  0.67285821    -0.79100
Zn503      Zn  0.41160733  0.15273881  0.66650080     1.55700
O504        O  0.35674686  0.05076549  0.61010582    -0.80500
Cd505      Cd  0.40837457  0.05006095  0.66861192     1.59700
Cd506      Cd  0.37150821  0.10682072  0.72410309     1.59600
O507        O  0.39839030  0.00779519  0.70768545    -0.80500
O508        O  0.38679483  0.10405395  0.67605671    -1.91000
Cd509      Cd  0.35471964  0.10219410  0.64322540     1.59900
O510        O  0.38203994  0.04920874  0.75030840    -0.80400
O511        O  0.35749154  0.15398935  0.61150023    -0.79100
C512        C  0.39952606  0.19615938  0.73587031     0.83500
C513        C  0.46549200  0.09784728  0.67089288     0.83100
O514        O  0.40003703  0.18240918  0.62201497    -0.78000
C515        C  0.37654881  0.02432485  0.60287244     0.83900
O516        O  0.40868617  0.19625592  0.70499707    -0.78100
C517        C  0.39045737  0.01274953  0.73875318     0.84100
C518        C  0.30833260  0.11055564  0.69829197     0.84400
O519        O  0.32689123  0.11205485  0.72216505    -0.80500
C520        C  0.41635830  0.35634318  0.81596240    -0.02000
C521        C  0.35240077  0.31422225  0.50459989     0.86900
C522        C  0.32086844  0.32561105  0.49780339    -0.53300
C523        C  0.31703357  0.36286694  0.47958246     0.09900
C524        C  0.34244341  0.38579141  0.97089642     0.20800
C525        C  0.36664082  0.31411770  0.46926248    -0.54000
C526        C  0.35958724  0.35117417  0.95104836     0.10000
C527        C  0.36378412  0.35457401  0.52224677    -0.53600
C528        C  0.36031048  0.39173897  0.50440194     0.10500
H529        H  0.30277903  0.30770463  0.50737288     0.15000
H530        H  0.33939309  0.41634775  0.95657602     0.00800
H531        H  0.37620636  0.28733703  0.95918613     0.15300
H532        H  0.37251508  0.35419278  0.54798868     0.15100
O533        O  0.10778521  0.49647847  0.87210715    -0.78100
C534        C  0.04105645  0.41112258  0.91666918     0.83000
O535        O  0.12615483  0.47208626  0.49536956    -0.79200
O536        O  0.10485685  0.31843602  0.95084272    -0.80700
O537        O  0.15455444  0.36672542  0.86183420    -0.80400
O538        O  0.15140406  0.47163143  0.86165073    -0.79100
Zn539      Zn  0.09575214  0.46509434  0.91619657     1.55700
O540        O  0.11110309  0.33833383  0.86735112    -0.80500
Cd541      Cd  0.15398836  0.41909447  0.89368651     1.59700
Cd542      Cd  0.13451252  0.41311993  0.97362236     1.59600
O543        O  0.19220206  0.41819276  0.91939550    -0.80500
O544        O  0.12054012  0.41639206  0.92504150    -1.91000
Cd545      Cd  0.09841225  0.36417654  0.91381693     1.59900
O546        O  0.17905127  0.40980766  0.97388014    -0.80400
O547        O  0.05518385  0.37618684  0.91545817    -0.79100
C548        C  0.10974751  0.50471559  0.98609204     0.83500
C549        C  0.13095915  0.49704453  0.85468643     0.83100
O550        O  0.05353972  0.44762066  0.91551153    -0.78000
C551        C  0.13537258  0.34038343  0.85262732     0.83900
O552        O  0.09976728  0.50563934  0.95578157    -0.78100
C553        C  0.19840124  0.41235105  0.95078160     0.84100
C554        C  0.11186939  0.31916589  0.98228612     0.84400
O555        O  0.12473452  0.35427470  0.49367290    -0.80500
C556        C  0.08902070  0.16442147  0.56244801    -0.02000
C557        C  0.15795472  0.20863450  0.75200318     0.86900
C558        C  0.18862263  0.19644476  0.74284993    -0.53300
C559        C  0.19132202  0.15830412  0.72602481     0.09900
C560        C  0.16244512  0.13629567  0.71844015     0.20800
C561        C  0.14319230  0.20912836  0.71718552    -0.54000
C562        C  0.14442622  0.17113156  0.69913418     0.10000
C563        C  0.14562161  0.16985401  0.77090017    -0.53600
C564        C  0.14804743  0.13204841  0.75392986     0.10500
H565        H  0.20691422  0.21618382  0.74916367     0.15000
H566        H  0.16499688  0.10468234  0.70605677     0.00800
H567        H  0.13398614  0.23854859  0.70732347     0.15300
H568        H  0.13712637  0.17178973  0.79683224     0.15100
C569        C  0.11956936  0.12869852  0.61122607    -0.20900
C570        C  0.10310341  0.16337702  0.59861705    -0.08900
C571        C  0.09778755  0.19742780  0.62166186     0.30000
C572        C  0.11005680  0.19814084  0.65402762    -0.20900
C573        C  0.12940337  0.16622850  0.66501417    -0.08900
C574        C  0.13337335  0.13067724  0.64301961     0.30000
F575        F  0.15049096  0.09736996  0.65148045    -0.19400
H576        H  0.12213725  0.09929282  0.59694035     0.18300
H577        H  0.10385436  0.22480879  0.67021176     0.18300
F578        F  0.08105373  0.23112834  0.61259718    -0.19400
C579        C  0.16715262  0.28624510  0.82675173    -0.20900
C580        C  0.14212024  0.31039796  0.82490507    -0.08900
C581        C  0.12342106  0.30411184  0.79759615     0.30000
C582        C  0.12964891  0.27348721  0.77255075    -0.20900
C583        C  0.15468388  0.24843424  0.77428654    -0.08900
C584        C  0.17302611  0.25471619  0.80247063     0.30000
F585        F  0.19556132  0.22841807  0.80824555    -0.19400
H586        H  0.18141024  0.29007673  0.84826632     0.18300
H587        H  0.11386387  0.26797119  0.75301516     0.18300
F588        F  0.09894451  0.32713340  0.79544235    -0.19400
C589        C  0.11193814  0.05328129  0.81337141    -0.20900
C590        C  0.13445863  0.52790016  0.82569489    -0.08900
C591        C  0.16139182  0.53514125  0.81033950     0.30000
C592        C  0.16494083  0.06496927  0.78158191    -0.20900
C593        C  0.14211768  0.09143488  0.77242958    -0.08900
C594        C  0.11537071  0.08467871  0.78788010     0.30000
F595        F  0.09293617  0.11006170  0.77949350    -0.19400
H596        H  0.09124771  0.04953459  0.82540725     0.18300
H597        H  0.18586611  0.07052997  0.77058161     0.18300
F598        F  0.18498266  0.51439976  0.82165037    -0.19400
C599        C  0.12566601  0.27144069  0.53072525    -0.20900
C600        C  0.11117560  0.27894330  0.49996124    -0.08900
C601        C  0.09300764  0.24618403  0.48782926     0.30000
C602        C  0.08766198  0.20921750  0.50740586    -0.20900
C603        C  0.09974773  0.20327637  0.54009992    -0.08900
C604        C  0.12096139  0.23360936  0.54994635     0.30000
F605        F  0.13810550  0.22686678  0.57723757    -0.19400
H606        H  0.14113629  0.29460338  0.53967838     0.18300
H607        H  0.07247535  0.18608647  0.49775836     0.18300
F608        F  0.07513077  0.25038396  0.96116978    -0.19400
C609        C  0.12878124  0.06951167  0.51721632    -0.20900
C610        C  0.10612635  0.04447520  0.50510306    -0.08900
C611        C  0.07839480  0.06054951  0.50823003     0.30000
C612        C  0.07317607  0.09906081  0.52532471    -0.20900
C613        C  0.09536624  0.12296932  0.54076069    -0.08900
C614        C  0.12358078  0.10913104  0.53357421     0.30000
F615        F  0.14617198  0.13330800  0.54333589    -0.19400
H616        H  0.15052249  0.05912292  0.51296980     0.18300
H617        H  0.05138787  0.11012478  0.52555352     0.18300
F618        F  0.05704938  0.53420883  0.49591607    -0.19400
C619        C  0.27904459  0.40053835  0.94419817    -0.20900
C620        C  0.28537880  0.38049812  0.97550164    -0.08900
C621        C  0.26684081  0.38147895  0.49689298     0.30000
C622        C  0.23914471  0.39399128  0.48847621    -0.20900
C623        C  0.22876922  0.40569110  0.96025202    -0.08900
C624        C  0.25110829  0.41307590  0.93655682     0.30000
F625        F  0.24596481  0.43150118  0.90563066    -0.19400
H626        H  0.29552589  0.40501222  0.92499416     0.18300
H627        H  0.22303474  0.39358194  0.50843929     0.18300
F628        F  0.27260240  0.37051413  0.52982599    -0.19400
C629        C  0.41639860  0.36230636  0.88283668    -0.20900
C630        C  0.40121588  0.35653804  0.85187813    -0.08900
C631        C  0.37105935  0.35444987  0.85456455     0.30000
C632        C  0.35731396  0.35477713  0.88671102    -0.20900
C633        C  0.37313691  0.35735004  0.91696245    -0.08900
C634        C  0.40274205  0.36120831  0.91469538     0.30000
F635        F  0.41861447  0.36356036  0.94359280    -0.19400
H636        H  0.43903038  0.36808290  0.88315734     0.18300
H637        H  0.33436316  0.35164018  0.88802378     0.18300
F638        F  0.35484533  0.35130128  0.82602023    -0.19400
C639        C  0.25694240  0.11496464  0.68027552    -0.20900
C640        C  0.27756442  0.11722320  0.70642966    -0.08900
C641        C  0.26858217  0.12903557  0.73956682     0.30000
C642        C  0.24019095  0.14004376  0.74580593    -0.20900
C643        C  0.21999227  0.13974274  0.71937814    -0.08900
C644        C  0.22841907  0.12605396  0.68665267     0.30000
F645        F  0.20962848  0.12612945  0.66038100    -0.19400
H646        H  0.26304490  0.10601125  0.65447102     0.18300
H647        H  0.23408122  0.15019639  0.77133910     0.18300
F648        F  0.28734055  0.13185808  0.76577585    -0.19400
C649        C  0.38707722  0.27025429  0.53920636    -0.20900
C650        C  0.35933017  0.27413395  0.52575951    -0.08900
C651        C  0.33924746  0.24213104  0.53450668     0.30000
C652        C  0.34568045  0.21144334  0.55942118    -0.20900
C653        C  0.37228681  0.21109646  0.57580082    -0.08900
C654        C  0.39337113  0.23990974  0.56449147     0.30000
F655        F  0.41979628  0.23973709  0.57837465    -0.19400
H656        H  0.40359260  0.29274149  0.53159307     0.18300
H657        H  0.32938110  0.18824818  0.56628054     0.18300
F658        F  0.31377659  0.23886674  0.51866914    -0.19400
C659        C  0.39624941  0.47082125  0.56208963    -0.20900
C660        C  0.37312269  0.99568638  0.57262285    -0.08900
C661        C  0.34651064  0.99109626  0.55623163     0.30000
C662        C  0.34274305  0.45766190  0.53277987    -0.20900
C663        C  0.36591188  0.43290350  0.52184062    -0.08900
C664        C  0.39292251  0.44065976  0.53587801     0.30000
F665        F  0.41568579  0.41684141  0.52578499    -0.19400
H666        H  0.41713183  0.47514368  0.57317766     0.18300
H667        H  0.32164812  0.45119569  0.52294067     0.18300
F668        F  0.32347983  0.01411177  0.56654454    -0.19400
C669        C  0.41008960  0.43847725  0.81257518    -0.21300
C670        C  0.40489173  0.39765466  0.79764472    -0.08900
C671        C  0.38845167  0.39737842  0.76720721     0.30000
C672        C  0.38290359  0.43562710  0.74951882    -0.20900
C673        C  0.39143824  0.47551475  0.76251187    -0.08900
C674        C  0.40379315  0.47690181  0.79511439     0.30000
F675        F  0.41016913  0.01493092  0.80859130    -0.19400
H676        H  0.42101127  0.44050393  0.83687339     0.18300
H677        H  0.37199215  0.43403543  0.72516963     0.18300
F678        F  0.37689461  0.36091609  0.75440327    -0.19400
C679        C  0.41890577  0.27106913  0.74333298    -0.20900
C680        C  0.40401995  0.23571421  0.75718140    -0.08900
C681        C  0.39351527  0.23928048  0.79094112     0.30000
C682        C  0.39684664  0.27763058  0.80956771    -0.20900
C683        C  0.41073362  0.31404166  0.79527825    -0.08900
C684        C  0.42268626  0.30902692  0.76203496     0.30000
F685        F  0.43762986  0.34152049  0.74708695    -0.19400
H686        H  0.42781599  0.26951304  0.71771128     0.18300
H687        H  0.38905576  0.27781371  0.83564063     0.18300
F688        F  0.38020883  0.20555940  0.80633070    -0.19400
C689        C  0.96170549  0.43716835  0.91567841    -0.20900
C690        C  0.94955516  0.40126941  0.93302725    -0.08900
C691        C  0.96891186  0.37075350  0.94686123     0.30000
C692        C  0.99812271  0.37373891  0.93997359    -0.20900
C693        C  0.00964764  0.40851638  0.92154314    -0.08900
C694        C  0.99115292  0.44094426  0.91020961     0.30000
F695        F  0.00137947  0.47593307  0.89326121    -0.19400
H696        H  0.94807187  0.46225265  0.90566902     0.18300
H697        H  0.01207111  0.34942081  0.95060291     0.18300
F698        F  0.96066906  0.33924089  0.96880499    -0.19400
C699        C  0.87077526  0.40047519  0.90142617    -0.20900
C700        C  0.90090357  0.39802326  0.90211516    -0.08900
C701        C  0.91495267  0.39073828  0.87017157     0.30000
C702        C  0.89982662  0.39096845  0.83946573    -0.20900
C703        C  0.87038446  0.39674746  0.83913958    -0.08900
C704        C  0.85575937  0.40086590  0.87039179     0.30000
F705        F  0.82718079  0.40706227  0.87092526    -0.19400
H706        H  0.85894649  0.40407763  0.92515104     0.18300
H707        H  0.91130032  0.38680704  0.81552906     0.18300
F708        F  0.94301184  0.38105026  0.86781068    -0.19400
C709        C  0.83872197  0.04051068  0.69005316    -0.20900
C710        C  0.86699546  0.04601962  0.67884845    -0.08900
C711        C  0.88852389  0.02247843  0.69519212     0.30000
C712        C  0.88060319  0.48994388  0.72230514    -0.20900
C713        C  0.85200918  0.48090410  0.73117625    -0.08900
C714        C  0.83070020  0.50788427  0.71734861     0.30000
F715        F  0.80318320  0.50606685  0.72765669    -0.19400
H716        H  0.82171639  0.05936775  0.67890971     0.18300
H717        H  0.89768959  0.47123821  0.73345508     0.18300
F718        F  0.91630834  0.02804034  0.68652177    -0.19400
C719        C  0.89456865  0.28997751  0.68827695    -0.20900
C720        C  0.87237777  0.26132643  0.68055369    -0.08900
C721        C  0.84769425  0.26163849  0.70149854     0.30000
C722        C  0.84452602  0.29233309  0.72743580    -0.20900
C723        C  0.86573458  0.32318396  0.73295047    -0.08900
C724        C  0.89135422  0.32051508  0.71419701     0.30000
F725        F  0.91257837  0.34937443  0.71947644    -0.19400
H726        H  0.91407000  0.28999691  0.67333364     0.18300
H727        H  0.82453153  0.29407864  0.74134504     0.18300
F728        F  0.82586155  0.23399291  0.69584688    -0.19400
C729        C  0.89482663  0.01741092  0.96394531    -0.20900
C730        C  0.90507751  0.01884667  0.99769504    -0.08900
C731        C  0.91770764  0.48309313  0.01112071     0.30000
C732        C  0.92125228  0.44589469  0.99141579    -0.20900
C733        C  0.90976472  0.44190652  0.95814825    -0.08900
C734        C  0.89652074  0.47941013  0.94438770     0.30000
F735        F  0.88875802  0.48217562  0.91108810    -0.19400
H736        H  0.88441238  0.04531475  0.95304607     0.18300
H737        H  0.93311982  0.41942873  0.00244514     0.18300
F738        F  0.93220672  0.48519237  0.54153763    -0.19400
C739        C  0.89061689  0.35899501  0.98810576    -0.20900
C740        C  0.90586360  0.35785942  0.95669105    -0.08900
C741        C  0.91067200  0.31635951  0.94243506     0.30000
C742        C  0.90463258  0.27867222  0.96118667    -0.20900
C743        C  0.89324520  0.28090106  0.99439765    -0.08900
C744        C  0.88523868  0.32141137  0.00708830     0.30000
F745        F  0.87219468  0.32473694  0.03810660    -0.19400
H746        H  0.88302073  0.38882385  0.99882611     0.18300
H747        H  0.91255774  0.24988870  0.44964684     0.18300
F748        F  0.92344267  0.31207720  0.91138613    -0.19400
C749        C  0.00892147  0.20066782  0.56916644    -0.20900
C750        C  0.99626562  0.16388402  0.58369204    -0.08900
C751        C  0.01408195  0.12999886  0.59403863     0.30000
C752        C  0.04349756  0.13223624  0.58843105    -0.20900
C753        C  0.05627154  0.16718322  0.57070699    -0.08900
C754        C  0.03834085  0.20280803  0.56305170     0.30000
F755        F  0.04871519  0.24083851  0.55136126    -0.19400
H756        H  0.99592343  0.22798848  0.56202999     0.18300
H757        H  0.05642253  0.10524171  0.59649406     0.18300
F758        F  0.00316807  0.09432557  0.60937625    -0.19400
C759        C  0.72759707  0.13948842  0.56143154    -0.20900
C760        C  0.72077154  0.12061994  0.52998434    -0.08900
C761        C  0.74356984  0.11869681  0.00706441     0.30000
C762        C  0.77018349  0.12973053  0.51175252    -0.20900
C763        C  0.77762940  0.14485438  0.54435299    -0.08900
C764        C  0.75571367  0.15121807  0.56879041     0.30000
F765        F  0.76144780  0.16754268  0.60021488    -0.19400
H766        H  0.71145270  0.14355045  0.58094942     0.18300
H767        H  0.78780561  0.12569202  0.99530616     0.18300
F768        F  0.73756213  0.10624288  0.97459886    -0.19400
C769        C  0.54406894  0.12607512  0.66614807    -0.20900
C770        C  0.55669338  0.09358399  0.68658358    -0.08900
C771        C  0.53792292  0.06589859  0.70489819     0.30000
C772        C  0.50861212  0.06671210  0.69859148    -0.20900
C773        C  0.49673661  0.09689064  0.67600104    -0.08900
C774        C  0.51469994  0.12749360  0.66060824     0.30000
F775        F  0.50403969  0.15811424  0.63938919    -0.19400
H776        H  0.55727440  0.14955523  0.65309182     0.18300
H777        H  0.49494004  0.04459653  0.71254190     0.18300
F778        F  0.54708737  0.03987269  0.73050541    -0.19400
C779        C  0.60379783  0.08033942  0.59118575    -0.20900
C780        C  0.63260505  0.09149029  0.58841235    -0.08900
C781        C  0.64769549  0.10076524  0.61838449     0.30000
C782        C  0.63380625  0.10017448  0.65032559    -0.20900
C783        C  0.60425415  0.09184668  0.65319843    -0.08900
C784        C  0.58994349  0.07921202  0.62287026     0.30000
F785        F  0.56322182  0.06265738  0.62342178    -0.19400
H786        H  0.59210472  0.07077836  0.56859622     0.18300
H787        H  0.64610995  0.10695920  0.67305074     0.18300
F788        F  0.67610036  0.10808117  0.61714522    -0.19400
C789        C  0.76390072  0.36630413  0.75415962    -0.20900
C790        C  0.78442831  0.36548706  0.78021892    -0.08900
C791        C  0.77671703  0.34924885  0.81256948     0.30000
C792        C  0.74832871  0.33848627  0.81960108    -0.20900
C793        C  0.72720446  0.34295472  0.79434476    -0.08900
C794        C  0.73562377  0.35499518  0.76096634     0.30000
F795        F  0.71637762  0.35838379  0.73529527    -0.19400
H796        H  0.76956075  0.37736276  0.72866374     0.18300
H797        H  0.74270653  0.32842053  0.84535971     0.18300
F798        F  0.79604839  0.34662439  0.83813316    -0.19400
C799        C  0.61688382  0.47214062  0.94478352    -0.20900
C800        C  0.63912277  0.45010347  0.92843245    -0.08900
C801        C  0.67033856  0.95790623  0.93798256     0.30000
C802        C  0.67605066  0.98875145  0.96285307    -0.20900
C803        C  0.65383029  0.01218872  0.97842012    -0.08900
C804        C  0.62549525  0.00122087  0.97009643     0.30000
F805        F  0.60320663  0.02198959  0.98493805    -0.19400
H806        H  0.59496877  0.46630255  0.93765473     0.18300
H807        H  0.69812820  0.99479464  0.96826817     0.18300
F808        F  0.69264306  0.93816839  0.92230468    -0.19400
C809        C  0.65647659  0.23345999  0.95216478    -0.20900
C810        C  0.63085901  0.23412049  0.93338273    -0.08900
C811        C  0.60936649  0.20451927  0.94247637     0.30000
C812        C  0.61447898  0.17294854  0.96738893    -0.20900
C813        C  0.64094259  0.17017328  0.98395801    -0.08900
C814        C  0.66149683  0.20188521  0.97719519     0.30000
F815        F  0.68741900  0.19998308  0.99230300    -0.19400
H816        H  0.67334251  0.25614084  0.94633522     0.18300
H817        H  0.59833475  0.14871972  0.97219432     0.18300
F818        F  0.58397267  0.20434499  0.92607783    -0.19400
C819        C  0.62709105  0.01141681  0.75144353    -0.20900
C820        C  0.61200039  0.47232941  0.74261940    -0.08900
C821        C  0.59838726  0.97131845  0.71173068     0.30000
C822        C  0.59211040  0.00968613  0.69420001    -0.20900
C823        C  0.60115861  0.05025135  0.70663456    -0.08900
C824        C  0.62139115  0.04959876  0.73351661     0.30000
F825        F  0.63642224  0.08512655  0.74224542    -0.19400
H826        H  0.64110749  0.01248753  0.77337057     0.18300
H827        H  0.57827613  0.00800284  0.67218348     0.18300
F828        F  0.58368330  0.43462979  0.70169413    -0.19400
C829        C  0.58866128  0.13510099  0.74508130    -0.20900
C830        C  0.59639956  0.13399734  0.71003598    -0.08900
C831        C  0.60568831  0.17346483  0.69510965     0.30000
C832        C  0.60960299  0.21028518  0.71524281    -0.20900
C833        C  0.60344261  0.21003300  0.75047931    -0.08900
C834        C  0.59278281  0.17174862  0.76515654     0.30000
F835        F  0.58623974  0.16934503  0.79903489    -0.19400
H836        H  0.57968298  0.10679462  0.75726258     0.18300
H837        H  0.61676937  0.23960438  0.70283535     0.18300
F838        F  0.60904859  0.17827680  0.66079153    -0.19400
C839        C  0.49761156  0.38623020  0.81173776    -0.20900
C840        C  0.50962694  0.35270827  0.83098997    -0.08900
C841        C  0.49168090  0.32003710  0.84339265     0.30000
C842        C  0.46235198  0.32189766  0.83767563    -0.20900
C843        C  0.44956154  0.35668770  0.81992856    -0.08900
C844        C  0.46832153  0.38776516  0.80527716     0.30000
F845        F  0.45945251  0.41798247  0.78263705    -0.19400
H846        H  0.51118828  0.41059190  0.80026435     0.18300
H847        H  0.44921408  0.29629631  0.84807639     0.18300
F848        F  0.50234156  0.28650380  0.86160155    -0.19400
O849        O  0.60452178  0.76356532  0.38509178    -0.78100
C850        C  0.54114048  0.85005191  0.33550432     0.83000
O851        O  0.62011946  0.78123242  0.25787622    -0.79200
O852        O  0.60858968  0.93864280  0.29738258    -0.80700
O853        O  0.65154919  0.88934865  0.39358052    -0.80400
O854        O  0.64869710  0.78576684  0.39483670    -0.79100
Zn855      Zn  0.59421546  0.79283941  0.33952874     1.55700
O856        O  0.61072280  0.92330694  0.38315883    -0.80500
Cd857      Cd  0.65196569  0.83726631  0.36158049     1.59700
Cd858      Cd  0.63316177  0.83938104  0.28062332     1.59600
O859        O  0.69034884  0.83692805  0.33572168    -0.80500
O860        O  0.61943329  0.84043523  0.32935205    -1.91000
Cd861      Cd  0.59913371  0.89571933  0.33672198     1.59900
O862        O  0.67768104  0.84112764  0.28080869    -0.80400
O863        O  0.55564333  0.88476232  0.33435889    -0.79100
C864        C  0.60740893  0.74844113  0.27085970     0.83500
C865        C  0.62741066  0.76222895  0.40267578     0.83100
O866        O  0.55306274  0.81339133  0.33905851    -0.78000
C867        C  0.63340099  0.91840591  0.40064219     0.83900
O868        O  0.59787389  0.74899414  0.30155632    -0.78100
C869        C  0.69677583  0.84007247  0.30403114     0.84100
C870        C  0.61374189  0.93275634  0.26560385     0.84400
O871        O  0.61995187  0.89545279  0.25379555    -0.80500
C872        C  0.58901044  0.59063847  0.18918763    -0.02000
C873        C  0.65724228  0.55039486  0.50166935     0.86900
C874        C  0.68823189  0.56384658  0.50879513    -0.53300
C875        C  0.69141372  0.60293679  0.02445832     0.09900
C876        C  0.66287042  0.62393357  0.03513922     0.20800
C877        C  0.64320331  0.54946715  0.53703227    -0.54000
C878        C  0.64616624  0.58777187  0.05431227     0.10000
C879        C  0.64434849  0.58944707  0.48356602    -0.53600
C880        C  0.64678882  0.62735305  0.50068671     0.10500
H881        H  0.70681895  0.54548466  0.50162744     0.15000
H882        H  0.66517276  0.65423851  0.04983776     0.00800
H883        H  0.63193692  0.52285165  0.04525093     0.15300
H884        H  0.63521112  0.58747795  0.45809206     0.15100
O885        O  0.89567952  0.73561159  0.12956592    -0.78100
C886        C  0.96443679  0.66129746  0.08794710     0.83000
O887        O  0.88237668  0.70615706  0.50433172    -0.79200
O888        O  0.90884759  0.55947078  0.04948766    -0.80700
O889        O  0.85602829  0.60110692  0.14239731    -0.80400
O890        O  0.85480789  0.70452222  0.14416022    -0.79100
Zn891      Zn  0.90683831  0.70706704  0.08454922     1.55700
O892        O  0.89917345  0.57353048  0.13381561    -0.80500
Cd893      Cd  0.85352994  0.65357904  0.11077949     1.59700
Cd894      Cd  0.87159630  0.65005090  0.02951813     1.59600
O895        O  0.81490196  0.65153819  0.08627501    -0.80500
O896        O  0.88598207  0.65421330  0.07782259    -1.91000
Cd897      Cd  0.91117457  0.60429464  0.08853493     1.59900
O898        O  0.82696751  0.64639774  0.03112193    -0.80400
O899        O  0.95310073  0.62422911  0.09123648    -0.79100
C900        C  0.89118996  0.74350749  0.01411727     0.83500
C901        C  0.87418046  0.73221197  0.14958767     0.83100
O902        O  0.94929059  0.69513894  0.08473894    -0.78000
C903        C  0.87560995  0.57462756  0.15021660     0.83900
O904        O  0.89894946  0.74775595  0.04521094    -0.78100
C905        C  0.80809277  0.64763531  0.05490772     0.84100
C906        C  0.89923555  0.55922592  0.01897737     0.84400
O907        O  0.88633661  0.59178308  0.50728456    -0.80500
C908        C  0.91735125  0.89970340  0.43783099    -0.02000
C909        C  0.84798161  0.93938853  0.25246879     0.86900
C910        C  0.81675212  0.92557377  0.25846625    -0.53300
C911        C  0.81343689  0.88709257  0.27519924     0.09900
C912        C  0.84193285  0.86600218  0.28526331     0.20800
C913        C  0.86109624  0.93910593  0.28830794    -0.54000
C914        C  0.85792711  0.90110851  0.30566200     0.10000
C915        C  0.86115317  0.90068125  0.23430945    -0.53600
C916        C  0.85830633  0.86248518  0.25098241     0.10500
H917        H  0.79828835  0.94323701  0.25038650     0.15000
H918        H  0.83985104  0.83472303  0.29883931     0.00800
H919        H  0.87265162  0.96630157  0.29875614     0.15300
H920        H  0.87047832  0.90302214  0.20879972     0.15100
O921        O  0.45198729  0.63354439  0.16762131    -0.78100
C922        C  0.37612962  0.68052870  0.10595340     0.83000
O923        O  0.38431395  0.66382943  0.24971465    -0.79200
O924        O  0.31435684  0.60372139  0.16836628    -0.80700
O925        O  0.39789044  0.52046788  0.12393170    -0.80400
O926        O  0.45046857  0.56247143  0.17475900    -0.79100
Zn927      Zn  0.41038338  0.65218391  0.16820924     1.55700
O928        O  0.35629984  0.55027756  0.11106565    -0.80500
Cd929      Cd  0.40730400  0.54970796  0.17092656     1.59700
Cd930      Cd  0.36997470  0.60646787  0.22602222     1.59600
O931        O  0.39802279  0.50820417  0.21058922    -0.80500
O932        O  0.38546236  0.60357763  0.17788646    -1.91000
Cd933      Cd  0.35363500  0.60163151  0.14447802     1.59900
O934        O  0.38149827  0.54964864  0.25308983    -0.80400
O935        O  0.35638533  0.65372804  0.11268022    -0.79100
C936        C  0.39781294  0.69624028  0.23725638     0.83500
C937        C  0.46443687  0.59756238  0.17251258     0.83100
O938        O  0.39888918  0.68193673  0.12370582    -0.78000
C939        C  0.37606599  0.52342754  0.10460873     0.83900
O940        O  0.40739546  0.69567316  0.20658555    -0.78100
C941        C  0.39035028  0.51331388  0.24171385     0.84100
C942        C  0.30683363  0.60848360  0.19955687     0.84400
O943        O  0.32521998  0.61004525  0.22364583    -0.80500
C944        C  0.41658426  0.85696068  0.31608804    -0.02000
C945        C  0.35259649  0.81396832  0.00511980     0.86900
C946        C  0.32101721  0.82492971  0.99866267    -0.53300
C947        C  0.31666765  0.86216217  0.98054742     0.09900
C948        C  0.34261925  0.88538244  0.47041302     0.20800
C949        C  0.36653100  0.81375736  0.96958934    -0.54000
C950        C  0.36002589  0.85115858  0.45075649     0.10000
C951        C  0.36390223  0.85462990  0.02241945    -0.53600
C952        C  0.36034872  0.89171652  0.00439003     0.10500
H953        H  0.30328546  0.80639687  0.00840134     0.15000
H954        H  0.33900249  0.91563255  0.45584925     0.00800
H955        H  0.37739056  0.78781731  0.45901424     0.15300
H956        H  0.37294409  0.85441657  0.04799025     0.15100
O957        O  0.10643947  0.99476494  0.37044089    -0.78100
C958        C  0.04168471  0.91126037  0.41706466     0.83000
O959        O  0.12476395  0.97122545  0.99599990    -0.79200
O960        O  0.10544790  0.81793915  0.44985978    -0.80700
O961        O  0.15381544  0.87287446  0.35875025    -0.80400
O962        O  0.15148703  0.97534582  0.36230830    -0.79100
Zn963      Zn  0.09604762  0.96487127  0.41548010     1.55700
O964        O  0.11171967  0.84098520  0.36630600    -0.80500
Cd965      Cd  0.15417548  0.92191643  0.39324945     1.59700
Cd966      Cd  0.13504314  0.91291699  0.47302879     1.59600
O967        O  0.19250710  0.91808426  0.41849275    -0.80500
O968        O  0.12097722  0.91674500  0.42463904    -1.91000
Cd969      Cd  0.09906198  0.86454063  0.41335579     1.59900
O970        O  0.17969817  0.90811880  0.47292872    -0.80400
O971        O  0.05577484  0.87632865  0.41534366    -0.79100
C972        C  0.11090600  0.00538305  0.48430764     0.83500
C973        C  0.12984373  0.99743024  0.35369865     0.83100
O974        O  0.05411054  0.94772892  0.41610591    -0.78000
C975        C  0.13499690  0.84586822  0.34973682     0.83900
O976        O  0.10091502  0.00603182  0.45402314    -0.78100
C977        C  0.19890959  0.91065906  0.44962132     0.84100
C978        C  0.11166001  0.81890975  0.48156344     0.84400
O979        O  0.12275819  0.85352515  0.99520155    -0.80500
C980        C  0.08832942  0.66386742  0.06486093    -0.02000
C981        C  0.15919967  0.71282496  0.25170401     0.86900
C982        C  0.18958115  0.69721648  0.24386514    -0.53300
C983        C  0.19078333  0.65846676  0.22765401     0.09900
C984        C  0.16130437  0.63853408  0.22047623     0.20800
C985        C  0.14456996  0.71251423  0.21689935    -0.54000
C986        C  0.14463013  0.67363002  0.20022533     0.10000
C987        C  0.14574565  0.67560251  0.27184245    -0.53600
C988        C  0.14675014  0.63686634  0.25591855     0.10500
H989        H  0.20899837  0.71365058  0.25038731     0.15000
H990        H  0.16265087  0.60632306  0.20880643     0.00800
H991        H  0.13531557  0.74175115  0.20675881     0.15300
H992        H  0.13763349  0.67932529  0.29780948     0.15100
C993        C  0.11982584  0.62962592  0.11325176    -0.20900
C994        C  0.10248697  0.66345387  0.10094351    -0.08900
C995        C  0.09655750  0.69724239  0.12411356     0.30000
C996        C  0.10889401  0.69841204  0.15640251    -0.20900
C997        C  0.12915202  0.66764259  0.16678602    -0.08900
C998        C  0.13393405  0.63247106  0.14473730     0.30000
F999        F  0.15252738  0.60076090  0.15259415    -0.19400
H1000       H  0.12309783  0.60053458  0.09889797     0.18300
H1001       H  0.10234531  0.72440257  0.17288106     0.18300
F1002       F  0.07916537  0.73028271  0.11533934    -0.19400
C1003       C  0.16938789  0.81159184  0.30969575    -0.20900
C1004       C  0.14108022  0.81835940  0.32000274    -0.08900
C1005       C  0.11921463  0.79671914  0.30295763     0.30000
C1006       C  0.12586792  0.76558831  0.27868644    -0.20900
C1007       C  0.15440216  0.75471856  0.27116209    -0.08900
C1008       C  0.17617447  0.78033142  0.28545910     0.30000
F1009       F  0.20403271  0.77523651  0.27761934    -0.19400
H1010       H  0.18660791  0.82905980  0.32169042     0.18300
H1011       H  0.10854913  0.74762142  0.26736238     0.18300
F1012       F  0.09144646  0.80449508  0.31052689    -0.19400
C1013       C  0.11157594  0.56250584  0.32004779    -0.20900
C1014       C  0.13223603  0.02709670  0.32384508    -0.08900
C1015       C  0.15685978  0.02763080  0.30282971     0.30000
C1016       C  0.15916654  0.56360607  0.27664480    -0.20900
C1017       C  0.13929171  0.59706841  0.27486009    -0.08900
C1018       C  0.11482713  0.59538201  0.29582386     0.30000
F1019       F  0.09466019  0.62657460  0.29385978    -0.19400
H1020       H  0.09308819  0.56297612  0.33675955     0.18300
H1021       H  0.17818977  0.56437358  0.26082382     0.18300
F1022       F  0.17826425  0.99894785  0.30760141    -0.19400
C1023       C  0.12396020  0.77129112  0.03267284    -0.20900
C1024       C  0.10930458  0.77830622  0.00193419    -0.08900
C1025       C  0.09138696  0.74513213  0.99001148     0.30000
C1026       C  0.08671961  0.70792331  0.00953921    -0.20900
C1027       C  0.09893647  0.70245430  0.04221124    -0.08900
C1028       C  0.11969169  0.73348709  0.05205422     0.30000
F1029       F  0.13667799  0.72762404  0.07962011    -0.19400
H1030       H  0.13916879  0.79489865  0.04154242     0.18300
H1031       H  0.07172803  0.68439614  0.00004588     0.18300
F1032       F  0.07516161  0.74995560  0.45971488    -0.19400
C1033       C  0.12770401  0.56895869  0.01883369    -0.20900
C1034       C  0.10500164  0.54348075  0.00739749    -0.08900
C1035       C  0.07721390  0.55878617  0.01184192     0.30000
C1036       C  0.07207818  0.59725910  0.02912316    -0.20900
C1037       C  0.09443915  0.62194002  0.04350151    -0.08900
C1038       C  0.12257731  0.60844307  0.03546937     0.30000
F1039       F  0.14522033  0.63297908  0.04448488    -0.19400
H1040       H  0.14942760  0.55905330  0.01378177     0.18300
H1041       H  0.05018795  0.60773760  0.03013632     0.18300
F1042       F  0.05631825  0.03526310  0.99745096    -0.19400
C1043       C  0.27889925  0.89130871  0.44115129    -0.20900
C1044       C  0.28597183  0.87832592  0.47442369    -0.08900
C1045       C  0.26556880  0.87590299  0.99804882     0.30000
C1046       C  0.23770478  0.88798240  0.99001819    -0.20900
C1047       C  0.22934595  0.90268042  0.45848208    -0.08900
C1048       C  0.25093818  0.90303689  0.43305720     0.30000
F1049       F  0.24503690  0.91334008  0.40003314    -0.19400
H1050       H  0.29485812  0.89081142  0.42100982     0.18300
H1051       H  0.22128213  0.88387544  0.00935098     0.18300
F1052       F  0.27093305  0.86125533  0.03016598    -0.19400
C1053       C  0.41650083  0.86535010  0.38267127    -0.20900
C1054       C  0.40144310  0.85784113  0.35188290    -0.08900
C1055       C  0.37134501  0.85460796  0.35452107     0.30000
C1056       C  0.35765333  0.85413923  0.38662047    -0.20900
C1057       C  0.37343190  0.85791736  0.41677669    -0.08900
C1058       C  0.40284824  0.86427642  0.41452629     0.30000
F1059       F  0.41850763  0.86907103  0.44339581    -0.19400
H1060       H  0.43899213  0.87242869  0.38274118     0.18300
H1061       H  0.33481890  0.84949964  0.38796770     0.18300
F1062       F  0.35519716  0.85050887  0.32600246    -0.19400
C1063       C  0.25589859  0.61686079  0.18068210    -0.20900
C1064       C  0.27593666  0.61441087  0.20748535    -0.08900
C1065       C  0.26630698  0.62123579  0.24129446     0.30000
C1066       C  0.23800858  0.63278000  0.24766105    -0.20900
C1067       C  0.21860228  0.63763354  0.22071151    -0.08900
C1068       C  0.22749669  0.62839036  0.18719775     0.30000
F1069       F  0.20939473  0.63370558  0.16054374    -0.19400
H1070       H  0.26245748  0.61175268  0.15436438     0.18300
H1071       H  0.23143888  0.63971194  0.27372406     0.18300
F1072       F  0.28438857  0.61867586  0.26820408    -0.19400
C1073       C  0.38689563  0.77072993  0.04124367    -0.20900
C1074       C  0.35956590  0.77391799  0.02651312    -0.08900
C1075       C  0.33970171  0.74114539  0.03420553     0.30000
C1076       C  0.34570504  0.71051638  0.05938737    -0.20900
C1077       C  0.37173279  0.71087626  0.07704586    -0.08900
C1078       C  0.39276165  0.74041787  0.06675598     0.30000
F1079       F  0.41871489  0.74099332  0.08185474    -0.19400
H1080       H  0.40338950  0.79362579  0.03440813     0.18300
H1081       H  0.32955526  0.68671510  0.06536013     0.18300
F1082       F  0.31493048  0.73702007  0.01694278    -0.19400
C1083       C  0.39760666  0.96857767  0.06313064    -0.20900
C1084       C  0.37336132  0.49480176  0.07413447    -0.08900
C1085       C  0.34835321  0.49413633  0.05405653     0.30000
C1086       C  0.34669513  0.96415740  0.02640436    -0.20900
C1087       C  0.36786290  0.93327956  0.02065774    -0.08900
C1088       C  0.39402113  0.93733081  0.03780966     0.30000
F1089       F  0.41539187  0.90886341  0.03181463    -0.19400
H1090       H  0.41741689  0.96924274  0.07717045     0.18300
H1091       H  0.32640454  0.96160905  0.01350603     0.18300
F1092       F  0.32654415  0.52162360  0.06044954    -0.19400
C1093       C  0.41109979  0.93913262  0.31216665    -0.21300
C1094       C  0.40535667  0.89826114  0.29760120    -0.08900
C1095       C  0.38858683  0.89796838  0.26744594     0.30000
C1096       C  0.38306961  0.93615305  0.24966092    -0.20900
C1097       C  0.39204820  0.97599919  0.26228171    -0.08900
C1098       C  0.40486793  0.97748967  0.29461349     0.30000
F1099       F  0.41363303  0.51485706  0.31017706    -0.19400
H1100       H  0.42234248  0.94121074  0.33624691     0.18300
H1101       H  0.37183120  0.93454283  0.22553134     0.18300
F1102       F  0.37667242  0.86155774  0.25504012    -0.19400
C1103       C  0.41772107  0.77092358  0.24400983    -0.20900
C1104       C  0.40262240  0.73598682  0.25824375    -0.08900
C1105       C  0.39258284  0.73998225  0.29215578     0.30000
C1106       C  0.39667727  0.77828943  0.31059625    -0.20900
C1107       C  0.41061286  0.81441738  0.29584644    -0.08900
C1108       C  0.42212253  0.80891284  0.26246620     0.30000
F1109       F  0.43720065  0.84097026  0.24712761    -0.19400
H1110       H  0.42633674  0.76901042  0.21826353     0.18300
H1111       H  0.38940132  0.77862611  0.33687312     0.18300
F1112       F  0.37907117  0.70670362  0.30790289    -0.19400
C1113       C  0.96244352  0.93669447  0.41498484    -0.20900
C1114       C  0.95045877  0.90180320  0.43368715    -0.08900
C1115       C  0.96986912  0.87275792  0.44927447     0.30000
C1116       C  0.99907611  0.87553821  0.44244199    -0.20900
C1117       C  0.01040349  0.90883117  0.42223584    -0.08900
C1118       C  0.99185570  0.94022324  0.40932091     0.30000
F1119       F  0.00200579  0.97375676  0.39051852    -0.19400
H1120       H  0.94869707  0.96088430  0.40385811     0.18300
H1121       H  0.01315659  0.85236292  0.45436134     0.18300
F1122       F  0.96158552  0.84319717  0.47289392    -0.19400
C1123       C  0.87193859  0.89999890  0.40140290    -0.20900
C1124       C  0.90205245  0.89739043  0.40237718    -0.08900
C1125       C  0.91621541  0.88865447  0.37073212     0.30000
C1126       C  0.90127661  0.88822302  0.33988728    -0.20900
C1127       C  0.87187951  0.89449383  0.33920829    -0.08900
C1128       C  0.85708764  0.89946804  0.37025208     0.30000
F1129       F  0.82849241  0.90561072  0.37039048    -0.19400
H1130       H  0.85998993  0.90434770  0.42495743     0.18300
H1131       H  0.91286448  0.88329127  0.31612615     0.18300
F1132       F  0.94418434  0.87818285  0.36887520    -0.19400
C1133       C  0.84201308  0.53902320  0.19080868    -0.20900
C1134       C  0.87000119  0.54401864  0.17863491    -0.08900
C1135       C  0.89168986  0.51937855  0.19364294     0.30000
C1136       C  0.88336402  0.98834599  0.22306603    -0.20900
C1137       C  0.85453363  0.98013354  0.23153317    -0.08900
C1138       C  0.83366043  0.00680190  0.21643243     0.30000
F1139       F  0.80576738  0.00495516  0.22496084    -0.19400
H1140       H  0.82493971  0.55864101  0.18068973     0.18300
H1141       H  0.90009333  0.96944306  0.23477242     0.18300
F1142       F  0.91929853  0.52439678  0.18394776    -0.19400
C1143       C  0.89398393  0.78921478  0.18774846    -0.20900
C1144       C  0.87159726  0.76107920  0.17973958    -0.08900
C1145       C  0.84678696  0.76167587  0.20044593     0.30000
C1146       C  0.84377603  0.79209327  0.22660244    -0.20900
C1147       C  0.86528012  0.82232819  0.23251989    -0.08900
C1148       C  0.89094613  0.81941169  0.21389442     0.30000
F1149       F  0.91239506  0.84779005  0.21950375    -0.19400
H1150       H  0.91356842  0.78897370  0.17296512     0.18300
H1151       H  0.82372793  0.79416949  0.24036988     0.18300
F1152       F  0.82471013  0.73464255  0.19432474    -0.19400
C1153       C  0.89487227  0.51796805  0.46353003    -0.20900
C1154       C  0.90480745  0.52002161  0.49739055    -0.08900
C1155       C  0.91776722  0.98339861  0.51143648     0.30000
C1156       C  0.92150068  0.94612257  0.49182983    -0.20900
C1157       C  0.91042666  0.94205696  0.45835763    -0.08900
C1158       C  0.89728385  0.97949224  0.44438005     0.30000
F1159       F  0.88986998  0.98205242  0.41095088    -0.19400
H1160       H  0.88391270  0.54528772  0.45247411     0.18300
H1161       H  0.93325703  0.91969687  0.50308207     0.18300
F1162       F  0.93095190  0.98182006  0.04204743    -0.19400
C1163       C  0.89080295  0.85896458  0.48760461    -0.20900
C1164       C  0.90706889  0.85790633  0.45696854    -0.08900
C1165       C  0.91302468  0.81644111  0.44325120     0.30000
C1166       C  0.90636838  0.77873247  0.46160856    -0.20900
C1167       C  0.89336810  0.78089875  0.49393034    -0.08900
C1168       C  0.88484839  0.82134257  0.50624670     0.30000
F1169       F  0.87074324  0.82453977  0.53659531    -0.19400
H1170       H  0.88275596  0.88877915  0.49789199     0.18300
H1171       H  0.91105055  0.74885688  0.94817491     0.18300
F1172       F  0.92729956  0.81224086  0.41315484    -0.19400
C1173       C  0.00863283  0.70115484  0.07121453    -0.20900
C1174       C  0.99592337  0.66478918  0.08615699    -0.08900
C1175       C  0.01356038  0.63128234  0.09762258     0.30000
C1176       C  0.04292377  0.63297166  0.09186689    -0.20900
C1177       C  0.05570912  0.66713608  0.07324127    -0.08900
C1178       C  0.03800140  0.70291472  0.06524794     0.30000
F1179       F  0.04854420  0.74082169  0.05352503    -0.19400
H1180       H  0.99571642  0.72833597  0.06352952     0.18300
H1181       H  0.05577176  0.60617609  0.10051958     0.18300
F1182       F  0.00249189  0.59651632  0.11410686    -0.19400
C1183       C  0.72733634  0.63800297  0.06290901    -0.20900
C1184       C  0.72027652  0.62117407  0.03080529    -0.08900
C1185       C  0.74103860  0.61868076  0.50629042     0.30000
C1186       C  0.76987892  0.62917788  0.01305119    -0.20900
C1187       C  0.77747790  0.64252908  0.04607794    -0.08900
C1188       C  0.75564252  0.64820284  0.07073778     0.30000
F1189       F  0.76159768  0.66251163  0.10272466    -0.19400
H1190       H  0.71120394  0.64161021  0.08249126     0.18300
H1191       H  0.78522898  0.62546320  0.49408080     0.18300
F1192       F  0.73494132  0.60451771  0.47430053    -0.19400
C1193       C  0.54322095  0.62416765  0.16554825    -0.20900
C1194       C  0.55584142  0.59236251  0.18667739    -0.08900
C1195       C  0.53703129  0.56625392  0.20638481     0.30000
C1196       C  0.50763454  0.56742644  0.20069010    -0.20900
C1197       C  0.49573452  0.59649404  0.17723027    -0.08900
C1198       C  0.51377226  0.62577385  0.16038955     0.30000
F1199       F  0.50308242  0.65513524  0.13809567    -0.19400
H1200       H  0.55647142  0.64681614  0.15163340     0.18300
H1201       H  0.49393864  0.54647738  0.21571707     0.18300
F1202       F  0.54630982  0.54158504  0.23277554    -0.19400
C1203       C  0.60299810  0.58050557  0.09091036    -0.20900
C1204       C  0.63186320  0.59146976  0.08828642    -0.08900
C1205       C  0.64710080  0.59890308  0.11848777     0.30000
C1206       C  0.63321059  0.59752517  0.15043966    -0.20900
C1207       C  0.60357118  0.58978453  0.15318621    -0.08900
C1208       C  0.58921754  0.57816520  0.12264431     0.30000
F1209       F  0.56251409  0.56155337  0.12297648    -0.19400
H1210       H  0.59121771  0.57194758  0.06813318     0.18300
H1211       H  0.64557807  0.60340646  0.17326691     0.18300
F1212       F  0.67561694  0.60518122  0.11740681    -0.19400
C1213       C  0.76351116  0.87357776  0.25581318    -0.20900
C1214       C  0.78465366  0.86789811  0.28084154    -0.08900
C1215       C  0.77721328  0.84730031  0.31173896     0.30000
C1216       C  0.74877084  0.83621813  0.31843092    -0.20900
C1217       C  0.72726890  0.84503003  0.29437080    -0.08900
C1218       C  0.73517554  0.86261112  0.26243686     0.30000
F1219       F  0.71538450  0.87188091  0.23830288    -0.19400
H1220       H  0.76873219  0.88803200  0.23128479     0.18300
H1221       H  0.74342001  0.82220969  0.34308644     0.18300
F1222       F  0.79689382  0.84036655  0.33642220    -0.19400
C1223       C  0.61725450  0.96926195  0.44632825    -0.20900
C1224       C  0.63942306  0.94759890  0.42951521    -0.08900
C1225       C  0.66942397  0.45583983  0.44018948     0.30000
C1226       C  0.67472389  0.48684703  0.46505342    -0.20900
C1227       C  0.65223236  0.50986627  0.48047183    -0.08900
C1228       C  0.62404119  0.49793928  0.47224380     0.30000
F1229       F  0.60149893  0.51803230  0.48712524    -0.19400
H1230       H  0.59529642  0.96327530  0.43944281     0.18300
H1231       H  0.69670586  0.49343305  0.47043139     0.18300
F1232       F  0.69200839  0.43676405  0.42457311    -0.19400
C1233       C  0.65463420  0.73244481  0.45283393    -0.20900
C1234       C  0.62990405  0.73219829  0.43244451    -0.08900
C1235       C  0.60862033  0.70158010  0.43988758     0.30000
C1236       C  0.61317132  0.66999459  0.46488418    -0.20900
C1237       C  0.63888395  0.66811809  0.48310928    -0.08900
C1238       C  0.65909748  0.70082011  0.47796957     0.30000
F1239       F  0.68424264  0.70006025  0.49490803    -0.19400
H1240       H  0.67123896  0.75600207  0.44829680     0.18300
H1241       H  0.59723594  0.64515697  0.46854263     0.18300
F1242       F  0.58407769  0.70037914  0.42174755    -0.19400
C1243       C  0.62667824  0.50992768  0.25135452    -0.20900
C1244       C  0.61196317  0.97085163  0.24246867    -0.08900
C1245       C  0.59616726  0.46987271  0.21361120     0.30000
C1246       C  0.58999945  0.50800391  0.19563426    -0.20900
C1247       C  0.60002921  0.54855740  0.20694970    -0.08900
C1248       C  0.62085610  0.54792596  0.23317865     0.30000
F1249       F  0.63635131  0.58334479  0.24099000    -0.19400
H1250       H  0.64137493  0.51105370  0.27262176     0.18300
H1251       H  0.57554906  0.50626935  0.17419036     0.18300
F1252       F  0.58362304  0.93311100  0.20157436    -0.19400
C1253       C  0.58826006  0.63376642  0.24487779    -0.20900
C1254       C  0.59586835  0.63238538  0.20980827    -0.08900
C1255       C  0.60542222  0.67163747  0.19474380     0.30000
C1256       C  0.60961513  0.70853169  0.21476715    -0.20900
C1257       C  0.60339572  0.70860753  0.24999992    -0.08900
C1258       C  0.59247030  0.67053908  0.26477745     0.30000
F1259       F  0.58570596  0.66846802  0.29860499    -0.19400
H1260       H  0.57921195  0.60563141  0.25721893     0.18300
H1261       H  0.61700114  0.73767131  0.20227794     0.18300
F1262       F  0.60885601  0.67615510  0.16040983    -0.19400
C1263       C  0.49799152  0.88543924  0.31112525    -0.20900
C1264       C  0.50980597  0.85238109  0.33103581    -0.08900
C1265       C  0.49166599  0.82044820  0.34424011     0.30000
C1266       C  0.46232121  0.82261503  0.33862985    -0.20900
C1267       C  0.44976771  0.85690900  0.32006052    -0.08900
C1268       C  0.46870488  0.88719877  0.30470893     0.30000
F1269       F  0.45996945  0.91679757  0.28147679    -0.19400
H1270       H  0.51172225  0.90917967  0.29909886     0.18300
H1271       H  0.44901131  0.79761832  0.34963492     0.18300
F1272       F  0.50216893  0.78737588  0.36310818    -0.19400
O1273       O  0.60563871  0.76584257  0.88475175    -0.78100
C1274       C  0.54338274  0.85322955  0.83424694     0.83000
O1275       O  0.62127822  0.78316809  0.75721082    -0.79200
O1276       O  0.61173624  0.94039943  0.79653746    -0.80700
O1277       O  0.65425701  0.89087262  0.89241294    -0.80400
O1278       O  0.65013444  0.78695736  0.89379429    -0.79100
Zn1279     Zn  0.59603488  0.79524831  0.83897520     1.55700
O1280       O  0.61350793  0.92509197  0.88185674    -0.80500
Cd1281     Cd  0.65397944  0.83842141  0.86064017     1.59700
Cd1282     Cd  0.63503507  0.84067984  0.77981888     1.59600
O1283       O  0.69215156  0.83645837  0.83449926    -0.80500
O1284       O  0.62151083  0.84221256  0.82854573    -1.91000
Cd1285     Cd  0.60159647  0.89776518  0.83563347     1.59900
O1286       O  0.67939726  0.84052919  0.77963805    -0.80400
O1287       O  0.55790385  0.88792946  0.83305316    -0.79100
C1288       C  0.60859615  0.75059000  0.77049514     0.83500
C1289       C  0.62867368  0.76398653  0.90201532     0.83100
O1290       O  0.55531113  0.81662261  0.83791203    -0.78000
C1291       C  0.63619632  0.92015336  0.89929609     0.83900
O1292       O  0.59939374  0.75130797  0.80130970    -0.78100
C1293       C  0.69852344  0.83888857  0.80275342     0.84100
C1294       C  0.61672462  0.93432402  0.76477143     0.84400
O1295       O  0.62253679  0.89690277  0.75296189    -0.80500
C1296       C  0.58869986  0.59297922  0.68959471    -0.02000
C1297       C  0.65686758  0.55271018  0.00013808     0.86900
C1298       C  0.68806274  0.56541195  0.00678230    -0.53300
C1299       C  0.69104550  0.60205227  0.52567204     0.09900
C1300       C  0.66225822  0.62280058  0.53542508     0.20800
C1301       C  0.64333424  0.55091341  0.03571007    -0.54000
C1302       C  0.64559467  0.58698064  0.55492004     0.10000
C1303       C  0.64404939  0.59245112  0.98298375    -0.53600
C1304       C  0.64697789  0.62973969  0.00072489     0.10500
H1305       H  0.70638937  0.54706566  0.99863851     0.15000
H1306       H  0.66413759  0.65352745  0.54965340     0.00800
H1307       H  0.63189741  0.52154844  0.54698458     0.15300
H1308       H  0.63469509  0.59147712  0.95757869     0.15100
O1309       O  0.89622601  0.73316741  0.63108607    -0.78100
C1310       C  0.96352047  0.65687551  0.58877046     0.83000
O1311       O  0.88266118  0.70720173  0.00242720    -0.79200
O1312       O  0.90760643  0.55776736  0.55054431    -0.80700
O1313       O  0.85290968  0.60081041  0.64385894    -0.80400
O1314       O  0.85459312  0.70450499  0.64569055    -0.79100
Zn1315     Zn  0.90652032  0.70436056  0.58608911     1.55700
O1316       O  0.89565627  0.57144741  0.63568566    -0.80500
Cd1317     Cd  0.85214808  0.65355441  0.61216872     1.59700
Cd1318     Cd  0.87095026  0.64892093  0.53088682     1.59600
O1319       O  0.81377875  0.65380485  0.58692503    -0.80500
O1320       O  0.88485870  0.65236973  0.57943381    -1.91000
Cd1321     Cd  0.90930127  0.60167763  0.59048691     1.59900
O1322       O  0.82625923  0.64582312  0.53207836    -0.80400
O1323       O  0.95178292  0.62024434  0.59331255    -0.79100
C1324       C  0.89120664  0.74213395  0.51626193     0.83500
C1325       C  0.87462753  0.73117097  0.65103497     0.83100
O1326       O  0.94865132  0.69093876  0.58530168    -0.78000
C1327       C  0.87199922  0.57362933  0.65195709     0.83900
O1328       O  0.89897725  0.74590552  0.54736132    -0.78100
C1329       C  0.80719834  0.64888404  0.55556343     0.84100
C1330       C  0.89927355  0.55875106  0.51946004     0.84400
O1331       O  0.88611427  0.59198090  0.00661376    -0.80500
C1332       C  0.91768366  0.90063227  0.93532591    -0.02000
C1333       C  0.84707481  0.94200945  0.74991378     0.86900
C1334       C  0.81614530  0.92635696  0.75534180    -0.53300
C1335       C  0.81380204  0.88812094  0.77267962     0.09900
C1336       C  0.84261592  0.86889163  0.78334098     0.20800
C1337       C  0.85980050  0.94300061  0.78598619    -0.54000
C1338       C  0.85743644  0.90510571  0.80360706     0.10000
C1339       C  0.86140159  0.90374578  0.73227324    -0.53600
C1340       C  0.85929023  0.86561908  0.74928939     0.10500
H1341       H  0.79734069  0.94227874  0.74601397     0.15000
H1342       H  0.84109611  0.83779134  0.79730656     0.00800
H1343       H  0.87066632  0.97091257  0.79630916     0.15300
H1344       H  0.87060748  0.90618498  0.70671660     0.15100
O1345       O  0.45190921  0.63548093  0.66627215    -0.78100
C1346       C  0.37628520  0.67977991  0.60391622     0.83000
O1347       O  0.38606477  0.66393182  0.74887252    -0.79200
O1348       O  0.31474549  0.60521642  0.66782157    -0.80700
O1349       O  0.39859614  0.52160326  0.62274855    -0.80400
O1350       O  0.45077317  0.56445256  0.67378965    -0.79100
Zn1351     Zn  0.41034381  0.65338311  0.66683171     1.55700
O1352       O  0.35577038  0.54870952  0.61207202    -0.80500
Cd1353     Cd  0.40783263  0.55091999  0.66964916     1.59700
Cd1354     Cd  0.37072812  0.60754773  0.72481735     1.59600
O1355       O  0.39828876  0.50892807  0.70895126    -0.80500
O1356       O  0.38581413  0.60452669  0.67665918    -1.91000
Cd1357     Cd  0.35381536  0.60171991  0.64365336     1.59900
O1358       O  0.38141063  0.55023486  0.75132381    -0.80400
O1359       O  0.35684935  0.65235091  0.61034919    -0.79100
C1360       C  0.39914596  0.69664063  0.73629940     0.83500
C1361       C  0.46451226  0.59974828  0.67156050     0.83100
O1362       O  0.39863626  0.68238964  0.62229519    -0.78000
C1363       C  0.37591369  0.52284653  0.60482676     0.83900
O1364       O  0.40774671  0.69683529  0.70521639    -0.78100
C1365       C  0.39012244  0.51387733  0.73991483     0.84100
C1366       C  0.30751279  0.61066476  0.69902609     0.84400
O1367       O  0.32608911  0.61235924  0.72288201    -0.80500
C1368       C  0.41860696  0.85657546  0.81573041    -0.02000
C1369       C  0.35170426  0.81427921  0.50497065     0.86900
C1370       C  0.31988563  0.82503950  0.49982084    -0.53300
C1371       C  0.31510061  0.86206050  0.48166054     0.09900
C1372       C  0.34462073  0.88512526  0.97010186     0.20800
C1373       C  0.36478089  0.81431612  0.46897951    -0.54000
C1374       C  0.36229744  0.85052523  0.95103463     0.10000
C1375       C  0.36332156  0.85498412  0.52197321    -0.53600
C1376       C  0.35898317  0.89201376  0.50416564     0.10500
H1377       H  0.30239031  0.80660303  0.51043623     0.15000
H1378       H  0.34154959  0.91537143  0.95536349     0.00800
H1379       H  0.37911220  0.78697696  0.96006326     0.15300
H1380       H  0.37283758  0.85498091  0.54729362     0.15100
O1381       O  0.10864872  0.99604237  0.87039773    -0.78100
C1382       C  0.04237222  0.91015533  0.91480695     0.83000
O1383       O  0.12348235  0.97213682  0.49680549    -0.79200
O1384       O  0.10606780  0.81785313  0.95008040    -0.80700
O1385       O  0.15551038  0.86846272  0.85914351    -0.80400
O1386       O  0.15266665  0.97270632  0.86044341    -0.79100
Zn1387     Zn  0.09698334  0.96428040  0.91446738     1.55700
O1388       O  0.11290799  0.83757373  0.86646147    -0.80500
Cd1389     Cd  0.15539621  0.91967510  0.89185143     1.59700
Cd1390     Cd  0.13651590  0.91251838  0.97177518     1.59600
O1391       O  0.19402628  0.91751861  0.91682705    -0.80500
O1392       O  0.12204011  0.91583700  0.92341656    -1.91000
Cd1393     Cd  0.09987176  0.86340646  0.91269919     1.59900
O1394       O  0.18116942  0.90852472  0.97132907    -0.80400
O1395       O  0.05650836  0.87520614  0.91391181    -0.79100
C1396       C  0.11139084  0.00406623  0.98411453     0.83500
C1397       C  0.13191771  0.99739531  0.85320494     0.83100
O1398       O  0.05486224  0.94662919  0.91362212    -0.78000
C1399       C  0.13669802  0.84113010  0.85081687     0.83900
O1400       O  0.10093014  0.00464994  0.95404425    -0.78100
C1401       C  0.20042538  0.91099879  0.94807514     0.84100
C1402       C  0.11312597  0.81888763  0.98151135     0.84400
O1403       O  0.12065625  0.85365951  0.49576086    -0.80500
C1404       C  0.08756938  0.66180084  0.56319901    -0.02000
C1405       C  0.15672532  0.70739594  0.75183185     0.86900
C1406       C  0.18740201  0.69492484  0.74330830    -0.53300
C1407       C  0.19022608  0.65664859  0.72670388     0.09900
C1408       C  0.16138218  0.63454018  0.71899087     0.20800
C1409       C  0.14219689  0.70744633  0.71687614    -0.54000
C1410       C  0.14345515  0.66910804  0.69933943     0.10000
C1411       C  0.14407016  0.66882950  0.77088069    -0.53600
C1412       C  0.14676624  0.63074947  0.75436278     0.10500
H1413       H  0.20557759  0.71448971  0.75047531     0.15000
H1414       H  0.16390322  0.60278314  0.70678899     0.00800
H1415       H  0.13326723  0.73634511  0.70618974     0.15300
H1416       H  0.13538122  0.67104153  0.79670593     0.15100
C1417       C  0.11904224  0.62662846  0.61138305    -0.20900
C1418       C  0.10177034  0.66074692  0.59929179    -0.08900
C1419       C  0.09581488  0.69407452  0.62277425     0.30000
C1420       C  0.10800533  0.69463258  0.65515919    -0.20900
C1421       C  0.12823705  0.66366659  0.66548274    -0.08900
C1422       C  0.13295250  0.62877851  0.64311618     0.30000
F1423       F  0.15097486  0.59638736  0.65112562    -0.19400
H1424       H  0.12225123  0.59775447  0.59674977     0.18300
H1425       H  0.10115828  0.72024183  0.67175830     0.18300
F1426       F  0.07849438  0.72729932  0.61425564    -0.19400
C1427       C  0.16464500  0.78039210  0.82914232    -0.20900
C1428       C  0.14354076  0.81109926  0.82344091    -0.08900
C1429       C  0.12866167  0.81149563  0.79251993     0.30000
C1430       C  0.13404156  0.77989433  0.76795746    -0.20900
C1431       C  0.15431517  0.74725979  0.77414675    -0.08900
C1432       C  0.16979707  0.74843839  0.80508713     0.30000
F1433       F  0.18867405  0.71696816  0.81316956    -0.19400
H1434       H  0.17620733  0.77991948  0.85309094     0.18300
H1435       H  0.12099222  0.78021943  0.74535865     0.18300
F1436       F  0.10858030  0.84192499  0.78641934    -0.19400
C1437       C  0.11092309  0.55111144  0.81337634    -0.20900
C1438       C  0.13519476  0.02829886  0.82418262    -0.08900
C1439       C  0.16169049  0.03384578  0.80730110     0.30000
C1440       C  0.16465254  0.56592934  0.78436534    -0.20900
C1441       C  0.14138533  0.59040583  0.77345533    -0.08900
C1442       C  0.11435348  0.58223185  0.78766022     0.30000
F1443       F  0.09153266  0.60587927  0.77774794    -0.19400
H1444       H  0.08993537  0.54607488  0.82431391     0.18300
H1445       H  0.18578281  0.57280187  0.77446538     0.18300
F1446       F  0.18497467  0.01096589  0.81677964    -0.19400
C1447       C  0.12245544  0.77045376  0.53220248    -0.20900
C1448       C  0.10763543  0.77810828  0.50168382    -0.08900
C1449       C  0.08951997  0.74527576  0.48958462     0.30000
C1450       C  0.08491909  0.70768146  0.50873980    -0.20900
C1451       C  0.09753313  0.70137112  0.54112551    -0.08900
C1452       C  0.11833655  0.73223243  0.55111636     0.30000
F1453       F  0.13565782  0.72564541  0.57826576    -0.19400
H1454       H  0.13780367  0.79379849  0.54115943     0.18300
H1455       H  0.06987666  0.68431691  0.49910568     0.18300
F1456       F  0.07713619  0.74917596  0.96001921    -0.19400
C1457       C  0.12915974  0.56964486  0.51674437    -0.20900
C1458       C  0.10704857  0.54319832  0.50507421    -0.08900
C1459       C  0.07892886  0.55734720  0.50907883     0.30000
C1460       C  0.07289077  0.59556163  0.52624755    -0.20900
C1461       C  0.09461806  0.62088142  0.54117568    -0.08900
C1462       C  0.12309481  0.60877385  0.53343915     0.30000
F1463       F  0.14514298  0.63420410  0.54298664    -0.19400
H1464       H  0.15110900  0.56073625  0.51191680     0.18300
H1465       H  0.05082458  0.60522971  0.52693115     0.18300
F1466       F  0.05611272  0.03900742  0.49435243    -0.19400
C1467       C  0.28113574  0.89688561  0.94122315    -0.20900
C1468       C  0.28752684  0.87905621  0.97335478    -0.08900
C1469       C  0.26480136  0.87925371  0.50010575     0.30000
C1470       C  0.23687783  0.89141441  0.49218328    -0.20900
C1471       C  0.23087000  0.90371725  0.95729350    -0.08900
C1472       C  0.25316461  0.90902011  0.93312560     0.30000
F1473       F  0.24797381  0.92503052  0.90137185    -0.19400
H1474       H  0.29762208  0.89998948  0.92185206     0.18300
H1475       H  0.22098459  0.89099098  0.51239793     0.18300
F1476       F  0.27109441  0.86849963  0.53293773    -0.19400
C1477       C  0.41904647  0.86208684  0.88269648    -0.20900
C1478       C  0.40370428  0.85682757  0.85178307    -0.08900
C1479       C  0.37356458  0.85476893  0.85463745     0.30000
C1480       C  0.35997122  0.85456323  0.88683354    -0.20900
C1481       C  0.37591831  0.85648528  0.91699488    -0.08900
C1482       C  0.40552192  0.86041070  0.91463331     0.30000
F1483       F  0.42149441  0.86247674  0.94346828    -0.19400
H1484       H  0.44168239  0.86781089  0.88294176     0.18300
H1485       H  0.33702064  0.85151593  0.88823782     0.18300
F1486       F  0.35722096  0.85195789  0.82617784    -0.19400
C1487       C  0.25598591  0.61323484  0.68135485    -0.20900
C1488       C  0.27671690  0.61680711  0.70727655    -0.08900
C1489       C  0.26776649  0.62922141  0.74028550     0.30000
C1490       C  0.23928560  0.63962738  0.74656915    -0.20900
C1491       C  0.21896698  0.63819753  0.72029471    -0.08900
C1492       C  0.22737968  0.62377773  0.68776361     0.30000
F1493       F  0.20848224  0.62268667  0.66163160    -0.19400
H1494       H  0.26205453  0.60368699  0.65567542     0.18300
H1495       H  0.23320636  0.65029250  0.77197953     0.18300
F1496       F  0.28662821  0.63330721  0.76627704    -0.19400
C1497       C  0.38652472  0.77118909  0.54044592    -0.20900
C1498       C  0.35921123  0.77403754  0.52568942    -0.08900
C1499       C  0.33985376  0.74025333  0.53221135     0.30000
C1500       C  0.34611418  0.70896497  0.55678202    -0.20900
C1501       C  0.37193206  0.70984608  0.57487270    -0.08900
C1502       C  0.39266165  0.74023953  0.56531440     0.30000
F1503       F  0.41853007  0.74111079  0.58061665    -0.19400
H1504       H  0.40277635  0.79470546  0.53415657     0.18300
H1505       H  0.33028242  0.68445793  0.56212113     0.18300
F1506       F  0.31530463  0.73612154  0.51446613    -0.19400
C1507       C  0.39625935  0.97127090  0.56054044    -0.20900
C1508       C  0.37267263  0.49369386  0.57488804    -0.08900
C1509       C  0.34593755  0.48766747  0.55913017     0.30000
C1510       C  0.34278739  0.96028031  0.53055020    -0.20900
C1511       C  0.36535445  0.93356101  0.52077433    -0.08900
C1512       C  0.39245520  0.94055432  0.53485129     0.30000
F1513       F  0.41478314  0.91541455  0.52542300    -0.19400
H1514       H  0.41710097  0.97466368  0.57193695     0.18300
H1515       H  0.32166675  0.95482554  0.52041636     0.18300
F1516       F  0.32237967  0.50850116  0.57061463    -0.19400
C1517       C  0.41063415  0.93835182  0.81197261    -0.21300
C1518       C  0.40658034  0.89726394  0.79699800    -0.08900
C1519       C  0.39062845  0.89616178  0.76616757     0.30000
C1520       C  0.38462115  0.93409217  0.74824990    -0.20900
C1521       C  0.39202054  0.97441199  0.76142147    -0.08900
C1522       C  0.40361921  0.97640946  0.79441019     0.30000
F1523       F  0.41179737  0.51502296  0.80890669    -0.19400
H1524       H  0.42108468  0.94098284  0.83653258     0.18300
H1525       H  0.37420040  0.93191289  0.72361943     0.18300
F1526       F  0.37990384  0.85923120  0.75317992    -0.19400
C1527       C  0.42057693  0.77017354  0.74393095    -0.20900
C1528       C  0.40463386  0.73580239  0.75767442    -0.08900
C1529       C  0.39427982  0.73986121  0.79143992     0.30000
C1530       C  0.39854874  0.77798306  0.81004258    -0.20900
C1531       C  0.41307195  0.81378161  0.79562360    -0.08900
C1532       C  0.42521251  0.80793662  0.76258579     0.30000
F1533       F  0.44090187  0.83962856  0.74764577    -0.19400
H1534       H  0.42957061  0.76805038  0.71838030     0.18300
H1535       H  0.39072760  0.77852207  0.83608664     0.18300
F1536       F  0.38005835  0.70695707  0.80677757    -0.19400
C1537       C  0.96315807  0.93667742  0.91248344    -0.20900
C1538       C  0.95082081  0.90174127  0.93081893    -0.08900
C1539       C  0.96995947  0.87178243  0.94577524     0.30000
C1540       C  0.99923295  0.87418909  0.93905343    -0.20900
C1541       C  0.01093739  0.90777123  0.91940514    -0.08900
C1542       C  0.99260301  0.93961369  0.90671334     0.30000
F1543       F  0.00299366  0.97312148  0.88807998    -0.19400
H1544       H  0.94963837  0.96142741  0.90173062     0.18300
H1545       H  0.01307579  0.85047909  0.95070178     0.18300
F1546       F  0.96137363  0.84169025  0.96879994    -0.19400
C1547       C  0.87204684  0.90303122  0.89930851    -0.20900
C1548       C  0.90213084  0.89957778  0.89999790    -0.08900
C1549       C  0.91602965  0.89139162  0.86809071     0.30000
C1550       C  0.90094773  0.89218311  0.83737558    -0.20900
C1551       C  0.87163242  0.89910400  0.83704399    -0.08900
C1552       C  0.85703934  0.90370213  0.86826815     0.30000
F1553       F  0.82849995  0.91036338  0.86874983    -0.19400
H1554       H  0.86026690  0.90703312  0.92302511     0.18300
H1555       H  0.91233419  0.88735676  0.81346063     0.18300
F1556       F  0.94382609  0.88007251  0.86580777    -0.19400
C1557       C  0.83768000  0.53842864  0.69232817    -0.20900
C1558       C  0.86586614  0.54368869  0.68076762    -0.08900
C1559       C  0.88748954  0.52028651  0.69707327     0.30000
C1560       C  0.88150822  0.99209270  0.72033199    -0.20900
C1561       C  0.85287506  0.98303313  0.72902814    -0.08900
C1562       C  0.83159636  0.00979028  0.71487390     0.30000
F1563       F  0.80393051  0.00741298  0.72448352    -0.19400
H1564       H  0.82064639  0.55739216  0.68135911     0.18300
H1565       H  0.89854591  0.97336386  0.73156402     0.18300
F1566       F  0.91524308  0.52603795  0.68833236    -0.19400
C1567       C  0.89440685  0.79112420  0.68619940    -0.20900
C1568       C  0.87260286  0.76102517  0.68063674    -0.08900
C1569       C  0.84868505  0.76121927  0.70279569     0.30000
C1570       C  0.84577280  0.79311034  0.72783004    -0.20900
C1571       C  0.86649957  0.82523179  0.73118898    -0.08900
C1572       C  0.89146645  0.82282398  0.71119334     0.30000
F1573       F  0.91230034  0.85281543  0.71442197    -0.19400
H1574       H  0.91334709  0.79134883  0.67023957     0.18300
H1575       H  0.82629571  0.79453762  0.74278936     0.18300
F1576       F  0.82736099  0.73211722  0.69927173    -0.19400
C1577       C  0.89303206  0.51681458  0.96423106    -0.20900
C1578       C  0.90331076  0.51930087  0.99788852    -0.08900
C1579       C  0.91967528  0.98240524  0.01010838     0.30000
C1580       C  0.92313740  0.94579050  0.98972299    -0.20900
C1581       C  0.91154668  0.94274551  0.95643345    -0.08900
C1582       C  0.89836474  0.98063240  0.94334331     0.30000
F1583       F  0.89057135  0.98425515  0.91010070    -0.19400
H1584       H  0.88269629  0.54442408  0.95276073     0.18300
H1585       H  0.93493184  0.91895801  0.00028606     0.18300
F1586       F  0.92868286  0.98380200  0.54355990    -0.19400
C1587       C  0.89104384  0.86029706  0.98529679    -0.20900
C1588       C  0.90684063  0.85897714  0.95429708    -0.08900
C1589       C  0.91183380  0.81744732  0.94020685     0.30000
C1590       C  0.90515722  0.77980736  0.95871790    -0.20900
C1591       C  0.89301670  0.78217445  0.99153654    -0.08900
C1592       C  0.88506407  0.82278882  0.00406190     0.30000
F1593       F  0.87157958  0.82629669  0.03479608    -0.19400
H1594       H  0.88347118  0.89024340  0.99585627     0.18300
H1595       H  0.91286530  0.74789999  0.45135243     0.18300
F1596       F  0.92522993  0.81307256  0.90955313    -0.19400
C1597       C  0.00756257  0.69718812  0.57194307    -0.20900
C1598       C  0.99507108  0.65989277  0.58572322    -0.08900
C1599       C  0.01295007  0.62553393  0.59488568     0.30000
C1600       C  0.04232224  0.62802117  0.58889069    -0.20900
C1601       C  0.05484056  0.66357537  0.57165646    -0.08900
C1602       C  0.03682006  0.69948733  0.56526368     0.30000
F1603       F  0.04700870  0.73809411  0.55458962    -0.19400
H1604       H  0.99455394  0.72487438  0.56580428     0.18300
H1605       H  0.05538203  0.60085025  0.59622539     0.18300
F1606       F  0.00214973  0.58919495  0.60932498    -0.19400
C1607       C  0.72643398  0.63979117  0.56328862    -0.20900
C1608       C  0.71961913  0.62141235  0.53164652    -0.08900
C1609       C  0.74169699  0.61874897  0.00540572     0.30000
C1610       C  0.76912358  0.62984281  0.51372958    -0.20900
C1611       C  0.77659279  0.64430277  0.54649598    -0.08900
C1612       C  0.75464553  0.65089382  0.57087860     0.30000
F1613       F  0.76043317  0.66677947  0.60243388    -0.19400
H1614       H  0.71022873  0.64383504  0.58274344     0.18300
H1615       H  0.78592836  0.62534831  0.99325894     0.18300
F1616       F  0.73548967  0.60585425  0.97310678    -0.19400
C1617       C  0.54310327  0.62795874  0.66700066    -0.20900
C1618       C  0.55558919  0.59515129  0.68727028    -0.08900
C1619       C  0.53671429  0.56802895  0.70592571     0.30000
C1620       C  0.50743374  0.56915400  0.69972402    -0.20900
C1621       C  0.49568905  0.59918984  0.67694533    -0.08900
C1622       C  0.51371433  0.62973793  0.66157789     0.30000
F1623       F  0.50312071  0.66050329  0.64043529    -0.19400
H1624       H  0.55641710  0.65124677  0.65388175     0.18300
H1625       H  0.49369128  0.54727797  0.71381657     0.18300
F1626       F  0.54577135  0.54222921  0.73172981    -0.19400
C1627       C  0.60221475  0.58188288  0.59130653    -0.20900
C1628       C  0.63123654  0.59168733  0.58868411    -0.08900
C1629       C  0.64656432  0.59933854  0.61875871     0.30000
C1630       C  0.63270197  0.59881130  0.65069165    -0.20900
C1631       C  0.60299036  0.59194091  0.65350381    -0.08900
C1632       C  0.58835601  0.58074952  0.62302365     0.30000
F1633       F  0.56128493  0.56555661  0.62340727    -0.19400
H1634       H  0.59035764  0.57337281  0.56857498     0.18300
H1635       H  0.64516399  0.60453534  0.67347817     0.18300
F1636       F  0.67514183  0.60497240  0.61756929    -0.19400
C1637       C  0.76517888  0.86788121  0.75277451    -0.20900
C1638       C  0.78578932  0.86718044  0.77871464    -0.08900
C1639       C  0.77847659  0.84997445  0.81088620     0.30000
C1640       C  0.75028281  0.83822178  0.81794806    -0.20900
C1641       C  0.72900963  0.84270823  0.79289653    -0.08900
C1642       C  0.73710997  0.85560575  0.75960551     0.30000
F1643       F  0.71771290  0.85899372  0.73409698    -0.19400
H1644       H  0.77059062  0.87955746  0.72737500     0.18300
H1645       H  0.74489069  0.82750038  0.84361104     0.18300
F1646       F  0.79795643  0.84738403  0.83629803    -0.19400
C1647       C  0.61983161  0.97067554  0.94489708    -0.20900
C1648       C  0.64216741  0.94958664  0.92796426    -0.08900
C1649       C  0.66726373  0.45737880  0.93910409     0.30000
C1650       C  0.67311521  0.48824537  0.96385280    -0.20900
C1651       C  0.65109724  0.51284916  0.97858888    -0.08900
C1652       C  0.62269827  0.50269147  0.96993408     0.30000
F1653       F  0.60056072  0.52424383  0.98439298    -0.19400
H1654       H  0.59791759  0.96413640  0.93814080     0.18300
H1655       H  0.69516887  0.49313508  0.97000420     0.18300
F1656       F  0.68949276  0.43641559  0.92431884    -0.19400
C1657       C  0.65703261  0.73198397  0.95019322    -0.20900
C1658       C  0.63122114  0.73417761  0.93193699    -0.08900
C1659       C  0.60890535  0.70635578  0.94177341     0.30000
C1660       C  0.61327907  0.67510317  0.96716257    -0.20900
C1661       C  0.63980071  0.67094527  0.98342241    -0.08900
C1662       C  0.66132050  0.70075472  0.97562117     0.30000
F1663       F  0.68741175  0.69714507  0.99008077    -0.19400
H1664       H  0.67457060  0.75316912  0.94368908     0.18300
H1665       H  0.59646603  0.65215412  0.97261295     0.18300
F1666       F  0.58335218  0.70763751  0.92574691    -0.19400
C1667       C  0.62458007  0.51126636  0.75252021    -0.20900
C1668       C  0.61478671  0.97225682  0.74163088    -0.08900
C1669       C  0.59577228  0.47177659  0.71255735     0.30000
C1670       C  0.59005252  0.51027793  0.69485899    -0.20900
C1671       C  0.59954019  0.55066309  0.70721381    -0.08900
C1672       C  0.61949243  0.54954635  0.73440132     0.30000
F1673       F  0.63490529  0.58466296  0.74321195    -0.19400
H1674       H  0.63845108  0.51205315  0.77458824     0.18300
H1675       H  0.57634622  0.50891435  0.67270140     0.18300
F1676       F  0.58658653  0.93391014  0.70096166    -0.19400
C1677       C  0.58827559  0.63641802  0.74506611    -0.20900
C1678       C  0.59591964  0.63466892  0.71002935    -0.08900
C1679       C  0.60569408  0.67367497  0.69474423     0.30000
C1680       C  0.61019910  0.71057418  0.71458400    -0.20900
C1681       C  0.60418944  0.71083303  0.74984357    -0.08900
C1682       C  0.59304181  0.67307958  0.76484997     0.30000
F1683       F  0.58664273  0.67120402  0.79878649    -0.19400
H1684       H  0.57890836  0.60856839  0.75749102     0.18300
H1685       H  0.61769774  0.73955226  0.70194621     0.18300
F1686       F  0.60894730  0.67802993  0.66036948    -0.19400
C1687       C  0.49957018  0.88882675  0.81131277    -0.20900
C1688       C  0.51200414  0.85516261  0.83000396    -0.08900
C1689       C  0.49442275  0.82191464  0.84219168     0.30000
C1690       C  0.46508013  0.82317005  0.83672716    -0.20900
C1691       C  0.45183518  0.85787201  0.81942013    -0.08900
C1692       C  0.47019435  0.88979568  0.80510928     0.30000
F1693       F  0.46086252  0.92044033  0.78312364    -0.19400
H1694       H  0.51286352  0.91372020  0.80008980     0.18300
H1695       H  0.45228146  0.79707692  0.84696159     0.18300
F1696       F  0.50547826  0.78826744  0.85992022    -0.19400
loop_ 
_geom_bond_atom_site_label_1 
_geom_bond_atom_site_label_2 
_geom_bond_distance 
_geom_bond_site_symmetry_2 
_ccdc_geom_bond_type 
O1           C17   1.279       .  A
O1           Zn7   2.048       .  S
C2           O18   1.277       .  A
C2           O15   1.275       .  A
C2          C416   1.484       .  S
O3           C16   1.282       .  A
O3          Cd10   2.114       .  S
O4           C22   1.276       .  A
O4          Cd13   2.073       .  S
O5           C19   1.273       .  A
O5           Cd9   2.055       .  S
O6           C17   1.274       .  A
O6           Cd9   2.063       .  S
Zn7          O18   2.032       .  S
Zn7          O20   2.016       .  S
Zn7          O12   1.930       .  S
O8           C19   1.277       .  A
O8          Cd13   2.079       .  S
Cd9          O11   2.063       .  S
Cd9          O12   1.989       .  S
Cd10         O14   2.090       .  S
Cd10         O23   2.125       .  S
Cd10         O12   2.005       .  S
O11          C21   1.275       .  A
O12         Cd13   1.985       .  S
Cd13         O15   2.070       .  S
O14          C21   1.279       .  A
C16          O20   1.276       .  A
C16         C409   1.497       .  S
C17         C386   1.491       .  S
C19         C376   1.478       .  S
C21         C369   1.487       .  S
C22          O23   1.283       .  A
C22         C396   1.487       .  S
C24         C346   1.562       .  S
C24         C359   1.558       .  S
C24         C399   1.570       .  S
C24         C406   1.565       .  S
C25         C379   1.527       .  S
C25          C26   1.543       .  S
C25          C31   1.529       .  S
C25          C29   1.525       .  S
C26          H33   1.080       .  S
C26         C451   1.368       .  D
C27          C28   1.547       .  S
C27         C450   1.367       .  D
C27         C336   1.491       .  S
C28          C30   1.556       .  S
C28         C456   1.550       .  S
C28          H34   1.110       .  S
C29         H459   1.087       .  S
C29         C454   1.366       .  D
C30         C453   1.366       .  D
C30         C356   1.486       .  S
C31          H36   1.087       .  S
C31          C32   1.361       .  D
C32         C452   1.547       .  S
C32         C389   1.485       .  S
H35         C453   1.087       .  S
O37          C53   1.276       .  A
O37         Zn43   2.030       .  S
C38          O54   1.276       .  A
C38          O51   1.276       .  A
C38         C326   1.485       .  S
O39         C476   1.284       .  A
O39        Cd470   2.128       .  S
O40          C58   1.278       .  A
O40         Cd49   2.080       .  S
O41          C55   1.272       .  A
O41         Cd45   2.040       .  S
O42          C53   1.272       .  A
O42         Cd45   2.061       .  S
Zn43         O54   2.020       .  S
Zn43         O56   2.028       .  S
Zn43         O48   1.927       .  S
O44          C55   1.278       .  A
O44         Cd49   2.096       .  S
Cd45         O47   2.062       .  S
Cd45         O48   1.988       .  S
Cd46         O50   2.094       .  S
Cd46        O463   2.123       .  S
Cd46        O483   2.123       .  S
Cd46         O48   2.008       .  S
O47          C57   1.274       .  A
O48         Cd49   2.000       .  S
Cd49         O51   2.075       .  S
O50          C57   1.280       .  A
C52          O56   1.277       .  A
C52         O463   1.283       .  A
C52         C743   1.491   1_554  S
C53         C296   1.487       .  S
C55         C286   1.483       .  S
C57         C339   1.489       .  S
C58         O483   1.284       .  A
C58         C730   1.504   1_554  S
O59         C482   1.285       .  A
O59        Cd470   2.134       .  S
C60         C266   1.563       .  S
C60         C276   1.564       .  S
C60         C309   1.576       .  S
C60         C316   1.572       .  S
C61         C289   1.534       .  S
C61          C62   1.543       .  S
C61          C67   1.530       .  S
C61          C65   1.532       .  S
C62          H69   1.076       .  S
C62          C63   1.369       .  D
C63          C64   1.542       .  S
C63         C366   1.489       .  S
C64          C68   1.543       .  S
C64          C66   1.546       .  S
C64          H70   1.110       .  S
C65          H71   1.086       .  S
C65          C66   1.366       .  D
C66         C279   1.478       .  S
C67          H72   1.087       .  S
C67          C68   1.361       .  D
C68         C299   1.482       .  S
O73          C89   1.277       .  A
O73         Zn79   2.039       .  S
C74          O90   1.279       .  A
C74          O87   1.271       .  A
C74         C229   1.480       .  S
O75          C88   1.282       .  A
O75         Cd82   2.123       .  S
O76          C94   1.274       .  A
O76         Cd85   2.060       .  S
O77          C91   1.279       .  A
O77         Cd81   2.102       .  S
O78          C89   1.275       .  A
O78         Cd81   2.070       .  S
Zn79         O90   2.039       .  S
Zn79         O92   2.026       .  S
Zn79         O84   1.944       .  S
O80          C91   1.273       .  A
O80         Cd85   2.070       .  S
Cd81         O83   2.061       .  S
Cd81         O84   1.981       .  S
Cd82         O86   2.115       .  S
Cd82         O95   2.105       .  S
Cd82         O84   2.010       .  S
O83          C93   1.276       .  A
O84         Cd85   1.988       .  S
Cd85         O87   2.030       .  S
O86          C93   1.282       .  A
C88          O92   1.277       .  A
C88         C256   1.503       .  S
C89         C349   1.483       .  S
C91         C236   1.495   1_545  S
C93        C1097   1.481   1_545  S
C94          O95   1.281       .  A
C94         C216   1.492       .  S
C96         C206   1.563       .  S
C96         C246   1.566       .  S
C96         C259   1.569       .  S
C96         C419   1.567       .  S
C97         C226   1.529       .  S
C97          C98   1.543   1_554  S
C97         C103   1.530       .  S
C97         C101   1.528   1_554  S
C98         H105   1.078   1_556  S
C98          C99   1.370       .  D
C99         C524   1.547       .  S
C99         C620   1.493       .  S
C100        C102   1.545       .  S
C100        C523   1.540       .  S
C100        C528   1.544       .  S
C100        H106   1.111       .  S
C101        H531   1.087       .  S
C101        C526   1.365       .  D
C102        C525   1.364       .  D
C102        C209   1.476       .  S
C103        H108   1.087       .  S
C103        C104   1.357       .  D
C104        C524   1.547   1_554  S
C104        C239   1.484       .  S
H107        C525   1.087       .  S
O109        C125   1.277       .  A
O109       Zn115   2.030       .  S
C110        O126   1.275       .  A
C110        O123   1.273       .  A
C110        C269   1.483       .  S
O111        C548   1.285       .  A
O111       Cd542   2.129       .  S
O112        C130   1.272       .  A
O112       Cd121   2.044       .  S
O113        C127   1.272       .  A
O113       Cd117   2.053       .  S
O114        C125   1.274       .  A
O114       Cd117   2.060       .  S
Zn115       O126   2.038       .  S
Zn115       O128   1.993       .  S
Zn115       O120   1.936       .  S
O116        C127   1.274       .  A
O116       Cd121   2.056       .  S
Cd117       O119   2.073       .  S
Cd117       O120   1.993       .  S
Cd118       O122   2.094       .  S
Cd118       O535   2.133       .  S
Cd118       O555   2.147       .  S
Cd118       O120   2.010       .  S
O119        C129   1.275       .  A
O120       Cd121   1.974       .  S
Cd121       O123   2.067       .  S
O122        C129   1.279       .  A
C124        O128   1.274       .  A
C124        O535   1.286       .  A
C124       C1458   1.481       .  S
C125        C166   1.485       .  S
C127        C156   1.475       .  S
C129        C199   1.493       .  S
C130        O555   1.287       .  A
C130        C600   1.500       .  S
O131        C554   1.286       .  A
O131       Cd542   2.138       .  S
C132        C146   1.560       .  S
C132        C179   1.564       .  S
C132        C189   1.573       .  S
C132        C329   1.568       .  S
C133        C159   1.526       .  S
C133        C134   1.536       .  S
C133        C139   1.531       .  S
C133        C137   1.524       .  S
C134        H141   1.079       .  S
C134        C135   1.364       .  D
C135        C136   1.545       .  S
C135        C219   1.481       .  S
C136        C140   1.541       .  S
C136        C138   1.559       .  S
C136        H142   1.104       .  S
C137        H143   1.082       .  S
C137        C138   1.374       .  D
C138        C149   1.511       .  S
C139        H144   1.087       .  S
C139        C140   1.358       .  D
C140        C169   1.479       .  S
C145        C146   1.415       .  A
C145        C150   1.403       .  A
C145        H152   1.077       .  S
C146        C147   1.414       .  A
C147        C148   1.390       .  A
C147        F154   1.357       .  S
C148        C149   1.410       .  A
C148        H153   1.078       .  S
C149        C150   1.411       .  A
C150        F151   1.353       .  S
C155        C156   1.405       .  A
C155        C160   1.397       .  A
C155        H162   1.083       .  S
C156        C157   1.403       .  A
C157        C158   1.390       .  A
C157        F164   1.358       .  S
C158        C159   1.410       .  A
C158        H163   1.084       .  S
C159        C160   1.413       .  A
C160        F161   1.353       .  S
C165        C170   1.398       .  A
C165       C1014   1.406       .  A
C165        H172   1.083       .  S
C166        C167   1.412       .  A
C166       C1013   1.406       .  A
C167       C1016   1.398       .  A
C167        F174   1.357       .  S
C168        C169   1.399       .  A
C168       C1015   1.399       .  A
C168        H173   1.084       .  S
C169        C170   1.407       .  A
C170        F171   1.358       .  S
C175        C176   1.403       .  A
C175        C180   1.408       .  A
C175        H182   1.083       .  S
C176        C554   1.496   1_554  S
C176        C177   1.412   1_554  A
C177        C178   1.398   1_556  A
C177        F608   1.358       .  S
C178        C179   1.411       .  A
C178        H183   1.083   1_554  S
C179        C180   1.426       .  A
C180        F181   1.355       .  S
F184        C601   1.358       .  S
C185        C186   1.404       .  A
C185        C190   1.410       .  A
C185        H192   1.083       .  S
C186       C1396   1.482   1_554  S
C186        C187   1.400       .  A
C187        C188   1.395       .  A
C187       F1042   1.358   1_554  S
C188        C189   1.419       .  A
C188        H193   1.079       .  S
C189        C190   1.420       .  A
C190        F191   1.357       .  S
F194       C1035   1.358   1_556  S
C195        C196   1.402       .  A
C195        C200   1.403       .  A
C195        H202   1.083       .  S
C196        C523   1.487       .  S
C196        C621   1.407       .  A
C197        C198   1.398   1_554  A
C197        C620   1.412   1_554  A
C197        F204   1.357       .  S
C198        C623   1.404       .  A
C198        H203   1.083   1_556  S
C199        C200   1.414       .  A
C199        C622   1.407       .  A
C200        F201   1.357       .  S
C205        C206   1.418       .  A
C205        C210   1.396       .  A
C205        H212   1.079       .  S
C206        C207   1.420       .  A
C207        C208   1.403       .  A
C207        F214   1.357       .  S
C208        C209   1.399       .  A
C208        H213   1.083       .  S
C209        C210   1.398       .  A
C210        F211   1.358       .  S
C215        C216   1.412       .  A
C215        C220   1.402       .  A
C215        H222   1.083       .  S
C216        C217   1.409       .  A
C217        C218   1.398       .  A
C217        F224   1.357       .  S
C218        C219   1.403       .  A
C218        H223   1.084       .  S
C219        C220   1.402       .  A
C220        F221   1.357       .  S
C225        C226   1.413       .  A
C225        C230   1.395       .  A
C225        H232   1.083       .  S
C226        C227   1.410       .  A
C227        C228   1.394       .  A
C227        F234   1.354       .  S
C228        C229   1.407       .  A
C228        H233   1.083       .  S
C229        C230   1.403       .  A
C230        F231   1.357       .  S
C235        C240   1.399       .  A
C235       C1084   1.405       .  A
C235        H242   1.083       .  S
C236        C237   1.416       .  A
C236       C1083   1.406       .  A
C237       C1086   1.404       .  A
C237        F244   1.357   1_565  S
C238        C239   1.400       .  A
C238       C1085   1.403       .  A
C238        H243   1.083       .  S
C239        C240   1.409       .  A
C240        F241   1.358       .  S
C245        C246   1.421       .  A
C245        C250   1.407       .  A
C245        H252   1.083       .  S
C246        C247   1.421       .  A
C247        C248   1.397       .  A
C247        F254   1.354       .  S
C248        C249   1.400       .  A
C248        H253   1.084       .  S
C249        C941   1.484       .  S
C249        C250   1.403       .  A
C250       F1099   1.357       .  S
F251       C1098   1.357   1_545  S
C255        C256   1.408       .  A
C255        C260   1.401       .  A
C255        H262   1.083       .  S
C256        C257   1.409       .  A
C257        C258   1.408       .  A
C257        F264   1.357       .  S
C258        C259   1.419       .  A
C258        H263   1.079       .  S
C259        C260   1.418       .  A
C260        F261   1.357       .  S
C265        C266   1.419       .  A
C265        C270   1.401       .  A
C265        H272   1.083       .  S
C266        C267   1.421       .  A
C267        C268   1.399   1_655  A
C267        F274   1.354       .  S
C268        C269   1.402       .  A
C268        H273   1.084       .  S
C269        C270   1.402   1_455  A
C270        F271   1.357   1_655  S
C275        C276   1.417       .  A
C275        C280   1.405       .  A
C275        H282   1.083       .  S
C276        C277   1.427       .  A
C277        C278   1.396       .  A
C277        F284   1.355       .  S
C278        C279   1.393       .  A
C278        H283   1.084       .  S
C279        C280   1.402       .  A
C280        F281   1.357       .  S
C285        C286   1.404       .  A
C285       C1138   1.393       .  A
C285        H292   1.083       .  S
C286        C287   1.404       .  A
C287       C1136   1.400   1_545  A
C287        F294   1.357       .  S
C288        C289   1.413       .  A
C288       C1135   1.398       .  A
C288        H293   1.084       .  S
C289        C290   1.414       .  A
C290       C1133   1.393       .  A
C290        F291   1.352       .  S
C295        C296   1.405       .  A
C295        C300   1.395       .  A
C295        H302   1.083       .  S
C296        C297   1.414       .  A
C297        C298   1.401       .  A
C297        F304   1.357       .  S
C298        C299   1.401       .  A
C298        H303   1.083       .  S
C299        C300   1.408       .  A
C300        F301   1.358       .  S
C305        C306   1.406       .  A
C305       C1158   1.411   1_545  A
C305        H312   1.083       .  S
C306        C482   1.507       .  S
C306       C1155   1.412   1_545  A
C307        C308   1.401       .  A
C307       C1154   1.411       .  A
C307        F738   1.357       .  S
C308        C309   1.415       .  A
C308        H313   1.083       .  S
C309        C310   1.426       .  A
C310       C1153   1.410       .  A
C310        F311   1.354       .  S
F314        C731   1.358       .  S
C315        C316   1.416       .  A
C315        C320   1.403       .  A
C315        H322   1.079       .  S
C316        C317   1.424       .  A
C317        C318   1.406       .  A
C317        F324   1.355       .  S
C318        C319   1.400       .  A
C318        H747   1.083       .  S
C319        C476   1.490       .  S
C319        C320   1.406       .  A
C320        F321   1.358       .  S
H323        C742   1.083       .  S
C325        C326   1.402   1_455  A
C325        C330   1.398       .  A
C325        H332   1.083   1_455  S
C326        C327   1.405   1_655  A
C327        C328   1.398       .  A
C327        F334   1.357       .  S
C328        C329   1.416       .  A
C328        H333   1.083       .  S
C329        C330   1.424       .  A
C330        F331   1.355       .  S
C335        C336   1.402       .  A
C335        C340   1.403       .  A
C335        H342   1.079       .  S
C336        C761   1.409       .  A
C337        C760   1.410       .  A
C337        C762   1.398       .  A
C337        F344   1.357       .  S
C338        C339   1.404       .  A
C338        C761   1.396       .  A
C338        H767   1.083   1_554  S
C339        C340   1.414       .  A
C340        F341   1.358       .  S
H343        C762   1.083       .  S
C345        C346   1.418       .  A
C345        C350   1.401       .  A
C345        H352   1.082       .  S
C346        C347   1.420       .  A
C347        C348   1.399       .  A
C347        F354   1.356       .  S
C348        C349   1.402       .  A
C348        H353   1.084       .  S
C349        C350   1.403       .  A
C350        F351   1.357       .  S
C355        C356   1.401       .  A
C355        C360   1.397       .  A
C355        H362   1.084       .  S
C356        C357   1.402       .  A
C357        C358   1.403       .  A
C357        F364   1.354       .  S
C358        C359   1.415       .  A
C358        H363   1.083       .  S
C359        C360   1.421       .  A
C360        F361   1.356       .  S
C365        C366   1.407       .  A
C365        C370   1.395       .  A
C365        H372   1.083       .  S
C366        C367   1.405       .  A
C367        C368   1.402       .  A
C367        F374   1.356       .  S
C368        C369   1.410       .  A
C368        H373   1.083       .  S
C369        C370   1.407       .  A
C370        F371   1.357       .  S
C375        C376   1.402       .  A
C375       C1228   1.398       .  A
C375        H382   1.083       .  S
C376       C1225   1.406       .  A
C377        C378   1.393       .  A
C377       C1224   1.407       .  A
C377        F384   1.358       .  S
C378        C379   1.408   1_565  A
C378        H383   1.077       .  S
C379        C380   1.415   1_545  A
C380       C1223   1.398       .  A
C380        F381   1.358   1_565  S
C385        C386   1.411       .  A
C385        C390   1.401       .  A
C385        H392   1.083       .  S
C386        C387   1.409       .  A
C387        C388   1.399       .  A
C387        F394   1.357       .  S
C388        C389   1.406       .  A
C388        H393   1.084       .  S
C389        C390   1.403       .  A
C390        F391   1.357       .  S
C395        C400   1.403       .  A
C395       C1244   1.403   1_545  A
C395        H402   1.083       .  S
C396       C1243   1.403       .  A
C396       C1245   1.403       .  A
C397        C398   1.407   1_565  A
C397       C1244   1.404       .  A
C397       F1252   1.357       .  S
C398        C399   1.419       .  A
C398        H403   1.082       .  S
C399        C400   1.420       .  A
C400        F401   1.356       .  S
F404       C1245   1.357       .  S
C405        C406   1.412       .  A
C405        C410   1.398       .  A
C405        H412   1.083       .  S
C406        C407   1.425       .  A
C407        C408   1.406       .  A
C407        F414   1.356       .  S
C408        C409   1.404       .  A
C408        H413   1.083       .  S
C409        C410   1.410       .  A
C410        F411   1.357       .  S
C415        C416   1.403       .  A
C415        C420   1.401       .  A
C415        H422   1.084       .  S
C416        C417   1.402       .  A
C417        C418   1.398       .  A
C417        F424   1.357       .  S
C418        C419   1.418       .  A
C418        H423   1.083       .  S
C419        C420   1.423       .  A
C420        F421   1.355       .  S
O425        C441   1.280       .  A
O425       Zn431   2.065       .  S
C426        O442   1.278       .  A
C426        O439   1.276       .  A
C426        C840   1.486       .  S
O427        C440   1.282       .  A
O427       Cd434   2.103       .  S
O428        C446   1.275       .  A
O428       Cd437   2.074       .  S
O429        C443   1.272       .  A
O429       Cd433   2.046       .  S
O430        C441   1.273       .  A
O430       Cd433   2.061       .  S
Zn431       O442   2.038       .  S
Zn431       O444   2.024       .  S
Zn431       O436   1.936       .  S
O432        C443   1.277       .  A
O432       Cd437   2.077       .  S
Cd433       O435   2.058       .  S
Cd433       O436   1.984       .  S
Cd434       O438   2.090       .  S
Cd434       O447   2.126       .  S
Cd434       O436   2.005       .  S
O435        C445   1.275       .  A
O436       Cd437   1.986       .  S
Cd437       O439   2.072       .  S
O438        C445   1.279       .  A
C440        O444   1.277       .  A
C440        C833   1.495       .  S
C441        C810   1.496       .  S
C443        C800   1.476       .  S
C445        C793   1.487       .  S
C446        O447   1.282       .  A
C446        C820   1.489       .  S
C448        C770   1.561       .  S
C448        C783   1.557       .  S
C448        C823   1.566       .  S
C448        C830   1.563       .  S
C449        C803   1.527   1_554  S
C449        C450   1.540       .  S
C449        C455   1.529   1_554  S
C449        C453   1.526       .  S
C450        H457   1.080       .  S
C451        C452   1.545       .  S
C451        C760   1.492       .  S
C452        C454   1.555       .  S
C452        H458   1.110       .  S
C454        C780   1.486       .  S
C455        H460   1.087       .  S
C455        C456   1.360   1_556  D
C456        C813   1.487   1_554  S
O461        C477   1.278       .  A
O461       Zn467   2.043       .  S
C462        O478   1.277       .  A
C462        O475   1.277       .  A
C462        C750   1.492       .  S
O464        C482   1.277       .  A
O464       Cd473   2.079       .  S
O465        C479   1.272       .  A
O465       Cd469   2.048       .  S
O466        C477   1.272       .  A
O466       Cd469   2.060       .  S
Zn467       O478   2.033       .  S
Zn467       O480   2.020       .  S
Zn467       O472   1.933       .  S
O468        C479   1.279       .  A
O468       Cd473   2.093       .  S
Cd469       O471   2.058       .  S
Cd469       O472   1.990       .  S
Cd470       O474   2.103       .  S
Cd470       O472   2.012       .  S
O471        C481   1.274       .  A
O472       Cd473   1.996       .  S
Cd473       O475   2.085       .  S
O474        C481   1.281       .  A
C476        O480   1.276       .  A
C477        C720   1.490       .  S
C479        C710   1.484       .  S
C481        C763   1.490       .  S
C484        C690   1.567       .  S
C484        C700   1.565       .  S
C484        C733   1.576       .  S
C484        C740   1.574       .  S
C485        C713   1.535       .  S
C485        C486   1.545       .  S
C485        C491   1.531       .  S
C485        C489   1.533       .  S
C486        H493   1.077       .  S
C486        C487   1.369       .  D
C487        C488   1.541       .  S
C487        C790   1.487       .  S
C488        C492   1.544       .  S
C488        C490   1.548       .  S
C488        H494   1.110       .  S
C489        H495   1.086       .  S
C489        C490   1.366       .  D
C490        C703   1.482       .  S
C491        H496   1.087       .  S
C491        C492   1.360       .  D
C492        C723   1.482       .  S
O497        C513   1.277       .  A
O497       Zn503   2.034       .  S
C498        O514   1.278       .  A
C498        O511   1.271       .  A
C498        C653   1.480       .  S
O499        C512   1.282       .  A
O499       Cd506   2.118       .  S
O500        C518   1.274       .  A
O500       Cd509   2.058       .  S
O501        C515   1.279       .  A
O501       Cd505   2.099       .  S
O502        C513   1.276       .  A
O502       Cd505   2.072       .  S
Zn503       O514   2.040       .  S
Zn503       O516   2.029       .  S
Zn503       O508   1.943       .  S
O504        C515   1.273       .  A
O504       Cd509   2.061       .  S
Cd505       O507   2.061       .  S
Cd505       O508   1.982       .  S
Cd506       O510   2.119       .  S
Cd506       O519   2.104       .  S
Cd506       O508   2.006       .  S
O507        C517   1.276       .  A
O508       Cd509   1.985       .  S
Cd509       O511   2.031       .  S
O510        C517   1.283       .  A
C512        O516   1.277       .  A
C512        C680   1.502       .  S
C513        C773   1.483       .  S
C515        C660   1.491   1_545  S
C517       C1521   1.484   1_545  S
C518        O519   1.281       .  A
C518        C640   1.493       .  S
C520        C630   1.568       .  S
C520        C670   1.565       .  S
C520        C683   1.569       .  S
C520        C843   1.568       .  S
C521        C650   1.529       .  S
C521        C522   1.547       .  S
C521        C527   1.531       .  S
C521        C525   1.529       .  S
C522        H529   1.080       .  S
C522        C523   1.369       .  D
C524        C526   1.551       .  S
C524        H530   1.110       .  S
C526        C633   1.483       .  S
C527        H532   1.087       .  S
C527        C528   1.357       .  D
C528        C663   1.476       .  S
O533        C549   1.280       .  A
O533       Zn539   2.051       .  S
C534        O550   1.277       .  A
C534        O547   1.274       .  A
C534        C693   1.488       .  S
O536        C554   1.273       .  A
O536       Cd545   2.047       .  S
O537        C551   1.271       .  A
O537       Cd541   2.052       .  S
O538        C549   1.274       .  A
O538       Cd541   2.057       .  S
Zn539       O550   2.056       .  S
Zn539       O552   2.007       .  S
Zn539       O544   1.941       .  S
O540        C551   1.275       .  A
O540       Cd545   2.071       .  S
Cd541       O543   2.062       .  S
Cd541       O544   1.987       .  S
Cd542       O546   2.095       .  S
Cd542       O544   2.012       .  S
O543        C553   1.273       .  A
O544       Cd545   1.979       .  S
Cd545       O547   2.065       .  S
O546        C553   1.279       .  A
C548        O552   1.275       .  A
C548       C1034   1.483   1_556  S
C549        C590   1.489       .  S
C551        C580   1.464       .  S
C553        C623   1.490       .  S
C556        C570   1.563       .  S
C556        C603   1.568       .  S
C556        C613   1.572       .  S
C556        C753   1.572       .  S
C557        C583   1.522       .  S
C557        C558   1.530       .  S
C557        C563   1.523       .  S
C557        C561   1.529       .  S
C558        H565   1.086       .  S
C558        C559   1.363       .  D
C559        C560   1.549       .  S
C559        C643   1.487       .  S
C560        C564   1.543       .  S
C560        C562   1.568       .  S
C560        H566   1.103       .  S
C561        H567   1.082       .  S
C561        C562   1.379       .  D
C562        C573   1.519       .  S
C563        H568   1.088       .  S
C563        C564   1.356       .  D
C564        C593   1.478       .  S
C569        C570   1.416       .  A
C569        C574   1.405       .  A
C569        H576   1.079       .  S
C570        C571   1.413       .  A
C571        C572   1.392       .  A
C571        F578   1.357       .  S
C572        C573   1.413       .  A
C572        H577   1.083       .  S
C573        C574   1.414       .  A
C574        F575   1.352       .  S
C579        C580   1.397       .  A
C579        C584   1.392       .  A
C579        H586   1.084       .  S
C580        C581   1.399       .  A
C581        C582   1.397       .  A
C581        F588   1.357       .  S
C582        C583   1.413       .  A
C582        H587   1.081       .  S
C583        C584   1.415       .  A
C584        F585   1.357       .  S
C589       C1438   1.407       .  A
C589        C594   1.400       .  A
C589        H596   1.083       .  S
C590       C1437   1.407       .  A
C590        C591   1.414       .  A
C591       C1440   1.399       .  A
C591        F598   1.358       .  S
C592       C1439   1.399       .  A
C592        C593   1.399       .  A
C592        H597   1.084       .  S
C593        C594   1.406       .  A
C594        F595   1.358       .  S
C599        C600   1.403       .  A
C599        C604   1.409       .  A
C599        H606   1.083       .  S
C600        C601   1.413       .  A
C601        C602   1.399       .  A
C602        C603   1.411       .  A
C602        H607   1.083       .  S
C603        C604   1.427       .  A
C604        F605   1.355       .  S
C609        C610   1.403       .  A
C609        C614   1.410       .  A
C609        H616   1.083       .  S
C610        C972   1.480       .  S
C610        C611   1.400       .  A
C611        C612   1.394       .  A
C611       F1466   1.359       .  S
C612        C613   1.418       .  A
C612        H617   1.080       .  S
C613        C614   1.420       .  A
C614        F615   1.357       .  S
F618       C1459   1.359       .  S
C619        C620   1.403       .  A
C619        C624   1.402       .  A
C619        H626   1.083       .  S
C621        C622   1.399       .  A
C621        F628   1.357       .  S
C622        H627   1.083       .  S
C623        C624   1.413       .  A
C624        F625   1.357       .  S
C629        C630   1.419       .  A
C629        C634   1.396       .  A
C629        H636   1.078       .  S
C630        C631   1.421       .  A
C631        C632   1.408       .  A
C631        F638   1.357       .  S
C632        C633   1.401       .  A
C632        H637   1.083       .  S
C633        C634   1.398       .  A
C634        F635   1.358       .  S
C639        C640   1.413       .  A
C639        C644   1.405       .  A
C639        H646   1.083       .  S
C640        C641   1.408       .  A
C641        C642   1.397       .  A
C641        F648   1.357       .  S
C642        C643   1.406       .  A
C642        H647   1.084       .  S
C643        C644   1.403       .  A
C644        F645   1.357       .  S
C649        C650   1.413       .  A
C649        C654   1.396       .  A
C649        H656   1.083       .  S
C650        C651   1.410       .  A
C651        C652   1.394       .  A
C651        F658   1.354       .  S
C652        C653   1.407       .  A
C652        H657   1.083       .  S
C653        C654   1.403       .  A
C654        F655   1.357       .  S
C659       C1508   1.406       .  A
C659        C664   1.400       .  A
C659        H666   1.083       .  S
C660       C1507   1.406       .  A
C660        C661   1.415       .  A
C661       C1510   1.401       .  A
C661        F668   1.357   1_565  S
C662       C1509   1.400       .  A
C662        C663   1.399       .  A
C662        H667   1.084       .  S
C663        C664   1.406       .  A
C664        F665   1.358       .  S
C669        C670   1.420       .  A
C669        C674   1.405       .  A
C669        H676   1.083       .  S
C670        C671   1.421       .  A
C671        C672   1.398       .  A
C671        F678   1.355       .  S
C672        C673   1.401       .  A
C672        H677   1.084       .  S
C673       C1365   1.482       .  S
C673        C674   1.403       .  A
C674       F1523   1.357       .  S
F675       C1522   1.357   1_545  S
C679        C680   1.407       .  A
C679        C684   1.401       .  A
C679        H686   1.083       .  S
C680        C681   1.409       .  A
C681        C682   1.408       .  A
C681        F688   1.357       .  S
C682        C683   1.417       .  A
C682        H687   1.079       .  S
C683        C684   1.420       .  A
C684        F685   1.358       .  S
C689        C690   1.421       .  A
C689        C694   1.403       .  A
C689        H696   1.083       .  S
C690        C691   1.422       .  A
C691        C692   1.400       .  A
C691        F698   1.354       .  S
C692        C693   1.403   1_655  A
C692        H697   1.084   1_655  S
C693        C694   1.403   1_455  A
C694        F695   1.357   1_655  S
C699        C700   1.418       .  A
C699        C704   1.405       .  A
C699        H706   1.083       .  S
C700        C701   1.426       .  A
C701        C702   1.397       .  A
C701        F708   1.355       .  S
C702        C703   1.395       .  A
C702        H707   1.084       .  S
C703        C704   1.403       .  A
C704        F705   1.356       .  S
C709        C710   1.406       .  A
C709       C1562   1.397       .  A
C709        H716   1.083       .  S
C710        C711   1.404       .  A
C711       C1560   1.397   1_545  A
C711        F718   1.357       .  S
C712       C1559   1.398       .  A
C712        C713   1.413       .  A
C712        H717   1.084       .  S
C713        C714   1.414       .  A
C714       C1557   1.397       .  A
C714        F715   1.352       .  S
C719        C720   1.405       .  A
C719        C724   1.397       .  A
C719        H726   1.083       .  S
C720        C721   1.415       .  A
C721        C722   1.401       .  A
C721        F728   1.357       .  S
C722        C723   1.401       .  A
C722        H727   1.083       .  S
C723        C724   1.407       .  A
C724        F725   1.358       .  S
C729        C730   1.406       .  A
C729       C1582   1.409   1_545  A
C729        H736   1.083       .  S
C730       C1579   1.410   1_546  A
C731       C1578   1.411   1_554  A
C731        C732   1.400   1_554  A
C732        C733   1.415       .  A
C732        H737   1.083   1_556  S
C733        C734   1.426       .  A
C734       C1577   1.408       .  A
C734        F735   1.354       .  S
C739        C740   1.417       .  A
C739        C744   1.403   1_556  A
C739        H746   1.079       .  S
C740        C741   1.424       .  A
C741        C742   1.407       .  A
C741        F748   1.356       .  S
C742        C743   1.401       .  A
C743        C744   1.405   1_556  A
C744        F745   1.358       .  S
C749        C750   1.405   1_455  A
C749        C754   1.402       .  A
C749        H756   1.083   1_455  S
C750        C751   1.405   1_655  A
C751        C752   1.399       .  A
C751        F758   1.357       .  S
C752        C753   1.417       .  A
C752        H757   1.083       .  S
C753        C754   1.423       .  A
C754        F755   1.355       .  S
C759        C760   1.401       .  A
C759        C764   1.402       .  A
C759        H766   1.079       .  S
C761        F768   1.358   1_554  S
C762        C763   1.404       .  A
C763        C764   1.414       .  A
C764        F765   1.357       .  S
C769        C770   1.417       .  A
C769        C774   1.398       .  A
C769        H776   1.082       .  S
C770        C771   1.420       .  A
C771        C772   1.400       .  A
C771        F778   1.356       .  S
C772        C773   1.403       .  A
C772        H777   1.084       .  S
C773        C774   1.402       .  A
C774        F775   1.357       .  S
C779        C780   1.400       .  A
C779        C784   1.394       .  A
C779        H786   1.084       .  S
C780        C781   1.402       .  A
C781        C782   1.404       .  A
C781        F788   1.354       .  S
C782        C783   1.416       .  A
C782        H787   1.083       .  S
C783        C784   1.421       .  A
C784        F785   1.356       .  S
C789        C790   1.406       .  A
C789        C794   1.397       .  A
C789        H796   1.083       .  S
C790        C791   1.404       .  A
C791        C792   1.400       .  A
C791        F798   1.355       .  S
C792        C793   1.409       .  A
C792        H797   1.083       .  S
C793        C794   1.408       .  A
C794        F795   1.357       .  S
C799        C800   1.401       .  A
C799       C1652   1.396       .  A
C799        H806   1.083       .  S
C800       C1649   1.407       .  A
C801       C1648   1.406       .  A
C801        C802   1.394       .  A
C801        F808   1.358       .  S
C802        C803   1.409   1_565  A
C802        H807   1.076       .  S
C803        C804   1.414       .  A
C804       C1647   1.396   1_545  A
C804        F805   1.358       .  S
C809        C810   1.413       .  A
C809        C814   1.403       .  A
C809        H816   1.083       .  S
C810        C811   1.409       .  A
C811        C812   1.401       .  A
C811        F818   1.357       .  S
C812        C813   1.407       .  A
C812        H817   1.084       .  S
C813        C814   1.403       .  A
C814        F815   1.357       .  S
C819       C1668   1.403   1_545  A
C819        C824   1.402       .  A
C819        H826   1.083       .  S
C820       C1667   1.403       .  A
C820       C1669   1.403       .  A
C821       C1668   1.403       .  A
C821        C822   1.405   1_565  A
C821       F1676   1.357       .  S
C822        C823   1.419       .  A
C822        H827   1.082       .  S
C823        C824   1.420       .  A
C824        F825   1.356       .  S
F828       C1669   1.357       .  S
C829        C830   1.414       .  A
C829        C834   1.399       .  A
C829        H836   1.083       .  S
C830        C831   1.423       .  A
C831        C832   1.403       .  A
C831        F838   1.356       .  S
C832        C833   1.404       .  A
C832        H837   1.083       .  S
C833        C834   1.409       .  A
C834        F835   1.358       .  S
C839        C840   1.403       .  A
C839        C844   1.401       .  A
C839        H846   1.084       .  S
C840        C841   1.402       .  A
C841        C842   1.398       .  A
C841        F848   1.357       .  S
C842        C843   1.418       .  A
C842        H847   1.083       .  S
C843        C844   1.423       .  A
C844        F845   1.355       .  S
O849        C865   1.280       .  A
O849       Zn855   2.055       .  S
C850        O866   1.277       .  A
C850        O863   1.276       .  A
C850       C1264   1.485       .  S
O851        C864   1.282       .  A
O851       Cd858   2.109       .  S
O852        C870   1.276       .  A
O852       Cd861   2.076       .  S
O853        C867   1.272       .  A
O853       Cd857   2.048       .  S
O854        C865   1.274       .  A
O854       Cd857   2.062       .  S
Zn855       O866   2.036       .  S
Zn855       O868   2.024       .  S
Zn855       O860   1.933       .  S
O856        C867   1.277       .  A
O856       Cd861   2.083       .  S
Cd857       O859   2.061       .  S
Cd857       O860   1.987       .  S
Cd858       O862   2.092       .  S
Cd858       O871   2.125       .  S
Cd858       O860   2.005       .  S
O859        C869   1.275       .  A
O860       Cd861   1.987       .  S
Cd861       O863   2.073       .  S
O862        C869   1.279       .  A
C864        O868   1.277       .  A
C864       C1257   1.497       .  S
C865       C1234   1.493       .  S
C867       C1224   1.478       .  S
C869       C1217   1.487       .  S
C870        O871   1.282       .  A
C870       C1244   1.489       .  S
C872       C1194   1.563       .  S
C872       C1207   1.559       .  S
C872       C1247   1.568       .  S
C872       C1254   1.564       .  S
C873       C1227   1.529       .  S
C873        C874   1.541       .  S
C873        C879   1.529       .  S
C873        C877   1.526       .  S
C874        H881   1.079       .  S
C874       C1299   1.367       .  D
C875        C876   1.547       .  S
C875       C1298   1.367       .  D
C875       C1184   1.492       .  S
C876       C1304   1.551       .  S
C876        C878   1.557       .  S
C876        H882   1.110       .  S
C877       H1307   1.087       .  S
C877       C1302   1.366       .  D
C878       C1301   1.366       .  D
C878       C1204   1.488       .  S
C879        H884   1.087       .  S
C879        C880   1.362       .  D
C880       C1300   1.548       .  S
C880       C1237   1.487       .  S
H883       C1301   1.087       .  S
O885        C901   1.277       .  A
O885       Zn891   2.037       .  S
C886        O902   1.276       .  A
C886        O899   1.275       .  A
C886       C1174   1.484       .  S
O887       C1324   1.283       .  A
O887      Cd1318   2.123       .  S
O888        C906   1.276       .  A
O888       Cd897   2.072       .  S
O889        C903   1.272       .  A
O889       Cd893   2.046       .  S
O890        C901   1.271       .  A
O890       Cd893   2.055       .  S
Zn891       O902   2.028       .  S
Zn891       O904   2.022       .  S
Zn891       O896   1.932       .  S
O892        C903   1.276       .  A
O892       Cd897   2.081       .  S
Cd893       O895   2.057       .  S
Cd893       O896   1.989       .  S
Cd894      O1311   2.127       .  S
Cd894       O898   2.100       .  S
Cd894      O1331   2.128       .  S
Cd894       O896   2.011       .  S
O895        C905   1.273       .  A
O896       Cd897   1.996       .  S
Cd897       O899   2.068       .  S
O898        C905   1.281       .  A
C900       O1311   1.284       .  A
C900        O904   1.277       .  A
C900       C1591   1.490   1_554  S
C901       C1144   1.487       .  S
C903       C1134   1.481       .  S
C905       C1187   1.489       .  S
C906       O1331   1.284       .  A
C906       C1578   1.503   1_554  S
O907       C1330   1.284       .  A
O907      Cd1318   2.128       .  S
C908       C1114   1.564       .  S
C908       C1124   1.565       .  S
C908       C1157   1.577       .  S
C908       C1164   1.571       .  S
C909       C1137   1.535       .  S
C909        C910   1.544       .  S
C909        C915   1.528       .  S
C909        C913   1.532       .  S
C910        H917   1.075       .  S
C910        C911   1.369       .  D
C911        C912   1.543       .  S
C911       C1214   1.492       .  S
C912        C916   1.544       .  S
C912        C914   1.550       .  S
C912        H918   1.110       .  S
C913        H919   1.086       .  S
C913        C914   1.367       .  D
C914       C1127   1.481       .  S
C915        H920   1.088       .  S
C915        C916   1.358       .  D
C916       C1147   1.479       .  S
O921        C937   1.277       .  A
O921       Zn927   2.038       .  S
C922        O938   1.278       .  A
C922        O935   1.272       .  A
C922       C1077   1.483       .  S
O923        C936   1.283       .  A
O923       Cd930   2.123       .  S
O924        C942   1.275       .  A
O924       Cd933   2.063       .  S
O925        C939   1.279       .  A
O925       Cd929   2.099       .  S
O926        C937   1.275       .  A
O926       Cd929   2.072       .  S
Zn927       O938   2.041       .  S
Zn927       O940   2.026       .  S
Zn927       O932   1.945       .  S
O928        C939   1.273       .  A
O928       Cd933   2.068       .  S
Cd929       O931   2.056       .  S
Cd929       O932   1.983       .  S
Cd930       O934   2.127       .  S
Cd930       O943   2.108       .  S
Cd930       O932   2.013       .  S
O931        C941   1.276       .  A
O932       Cd933   1.991       .  S
Cd933       O935   2.040       .  S
O934        C941   1.284       .  A
C936        O940   1.277       .  A
C936       C1104   1.503       .  S
C937       C1197   1.483       .  S
C939       C1084   1.494       .  S
C942        O943   1.281       .  A
C942       C1064   1.494       .  S
C944       C1054   1.564       .  S
C944       C1094   1.564       .  S
C944       C1107   1.569       .  S
C944       C1267   1.567       .  S
C945       C1074   1.533       .  S
C945        C946   1.544   1_554  S
C945        C951   1.531       .  S
C945        C949   1.530   1_554  S
C946        H953   1.079   1_556  S
C946        C947   1.370       .  D
C947       C1372   1.546       .  S
C947       C1468   1.494       .  S
C948       C1371   1.542       .  S
C948       C1376   1.544       .  S
C948        C950   1.545       .  S
C948        H954   1.111       .  S
C949       H1379   1.087       .  S
C949       C1374   1.366       .  D
C950       C1373   1.365       .  D
C950       C1057   1.479       .  S
C951        H956   1.087       .  S
C951        C952   1.359       .  D
C952       C1372   1.547   1_554  S
C952       C1087   1.485       .  S
H955       C1373   1.087       .  S
O957        C973   1.278       .  A
O957       Zn963   2.042       .  S
C958        O974   1.275       .  A
C958        O971   1.274       .  A
C958       C1117   1.484       .  S
O959       C1396   1.285   1_565  A
O959      Cd1390   2.130       .  S
O960        C978   1.274       .  A
O960       Cd969   2.052       .  S
O961        C975   1.271       .  A
O961       Cd965   2.038       .  S
O962        C973   1.273       .  A
O962       Cd965   2.054       .  S
Zn963       O974   2.040       .  S
Zn963       O976   1.993   1_565  S
Zn963       O968   1.934       .  S
O964        C975   1.276       .  A
O964       Cd969   2.064       .  S
Cd965       O967   2.061       .  S
Cd965       O968   1.983       .  S
Cd966      O1383   2.134       .  S
Cd966       O970   2.103       .  S
Cd966      O1403   2.149       .  S
Cd966       O968   2.008       .  S
O967        C977   1.274       .  A
O968       Cd969   1.974       .  S
Cd969       O971   2.067       .  S
O970        C977   1.280       .  A
C972       O1383   1.287   1_545  A
C972        O976   1.274       .  A
C973       C1014   1.487   1_565  S
C975       C1004   1.471       .  S
C977       C1047   1.493       .  S
C978       O1403   1.288       .  A
C978       C1448   1.501       .  S
O979       C1402   1.287       .  A
O979      Cd1390   2.144       .  S
C980        C994   1.561       .  S
C980       C1027   1.567       .  S
C980       C1037   1.575       .  S
C980       C1177   1.568       .  S
C981       C1007   1.526       .  S
C981        C982   1.537       .  S
C981        C987   1.531       .  S
C981        C985   1.526       .  S
C982        H989   1.077       .  S
C982        C983   1.364       .  D
C983        C984   1.544       .  S
C983       C1067   1.483       .  S
C984        C988   1.540       .  S
C984        C986   1.559       .  S
C984        H990   1.103       .  S
C985        H991   1.082       .  S
C985        C986   1.375       .  D
C986        C997   1.510       .  S
C987        H992   1.087       .  S
C987        C988   1.358       .  D
C988       C1017   1.480       .  S
C993        C994   1.415       .  A
C993        C998   1.403       .  A
C993       H1000   1.076       .  S
C994        C995   1.415       .  A
C995        C996   1.391       .  A
C995       F1002   1.357       .  S
C996        C997   1.410       .  A
C996       H1001   1.078       .  S
C997        C998   1.411       .  A
C998        F999   1.353       .  S
C1003      C1004   1.403       .  A
C1003      C1008   1.394       .  A
C1003      H1010   1.084       .  S
C1004      C1005   1.400       .  A
C1005      C1006   1.391       .  A
C1005      F1012   1.358       .  S
C1006      C1007   1.412       .  A
C1006      H1011   1.084       .  S
C1007      C1008   1.414       .  A
C1008      F1009   1.352       .  S
C1013      C1018   1.397       .  A
C1013      H1020   1.083       .  S
C1014      C1015   1.414       .  A
C1015      F1022   1.357   1_545  S
C1016      C1017   1.400       .  A
C1016      H1021   1.083       .  S
C1017      C1018   1.407       .  A
C1018      F1019   1.358       .  S
C1023      C1024   1.403       .  A
C1023      C1028   1.409       .  A
C1023      H1030   1.083       .  S
C1024      C1402   1.500   1_554  S
C1024      C1025   1.413   1_554  A
C1025      C1026   1.399   1_556  A
C1025      F1456   1.357       .  S
C1026      C1027   1.411       .  A
C1026      H1031   1.083       .  S
C1027      C1028   1.426       .  A
C1028      F1029   1.355       .  S
F1032      C1449   1.358       .  S
C1033      C1034   1.404       .  A
C1033      C1038   1.411       .  A
C1033      H1040   1.083       .  S
C1034      C1035   1.399       .  A
C1035      C1036   1.396       .  A
C1036      C1037   1.420       .  A
C1036      H1041   1.079       .  S
C1037      C1038   1.420       .  A
C1038      F1039   1.357       .  S
C1043      C1044   1.400       .  A
C1043      C1048   1.401       .  A
C1043      H1050   1.083       .  S
C1044      C1371   1.487       .  S
C1044      C1469   1.408       .  A
C1045      C1468   1.411       .  A
C1045      C1046   1.399       .  A
C1045      F1052   1.357   1_556  S
C1046      C1471   1.405       .  A
C1046      H1051   1.083   1_556  S
C1047      C1470   1.407       .  A
C1047      C1048   1.415       .  A
C1048      F1049   1.357       .  S
C1053      C1054   1.418       .  A
C1053      C1058   1.396       .  A
C1053      H1060   1.079       .  S
C1054      C1055   1.420       .  A
C1055      C1056   1.405       .  A
C1055      F1062   1.357       .  S
C1056      C1057   1.400       .  A
C1056      H1061   1.083       .  S
C1057      C1058   1.398       .  A
C1058      F1059   1.358       .  S
C1063      C1064   1.413       .  A
C1063      C1068   1.403       .  A
C1063      H1070   1.083       .  S
C1064      C1065   1.409       .  A
C1065      C1066   1.398       .  A
C1065      F1072   1.357       .  S
C1066      C1067   1.404       .  A
C1066      H1071   1.084       .  S
C1067      C1068   1.402       .  A
C1068      F1069   1.357       .  S
C1073      C1074   1.413       .  A
C1073      C1078   1.397       .  A
C1073      H1080   1.083       .  S
C1074      C1075   1.411       .  A
C1075      C1076   1.396       .  A
C1075      F1082   1.354       .  S
C1076      C1077   1.407       .  A
C1076      H1081   1.083       .  S
C1077      C1078   1.404       .  A
C1078      F1079   1.357       .  S
C1083      C1088   1.399       .  A
C1083      H1090   1.083       .  S
C1084      C1085   1.416       .  A
C1085      F1092   1.357       .  S
C1086      C1087   1.400       .  A
C1086      H1091   1.084       .  S
C1087      C1088   1.409       .  A
C1088      F1089   1.358       .  S
C1093      C1094   1.420       .  A
C1093      C1098   1.405       .  A
C1093      H1100   1.083       .  S
C1094      C1095   1.420       .  A
C1095      C1096   1.398       .  A
C1095      F1102   1.355       .  S
C1096      C1097   1.400       .  A
C1096      H1101   1.084       .  S
C1097      C1098   1.402       .  A
C1103      C1104   1.408       .  A
C1103      C1108   1.401       .  A
C1103      H1110   1.083       .  S
C1104      C1105   1.408       .  A
C1105      C1106   1.407       .  A
C1105      F1112   1.357       .  S
C1106      C1107   1.418       .  A
C1106      H1111   1.079       .  S
C1107      C1108   1.419       .  A
C1108      F1109   1.358       .  S
C1113      C1114   1.419       .  A
C1113      C1118   1.402       .  A
C1113      H1120   1.083       .  S
C1114      C1115   1.421       .  A
C1115      C1116   1.399       .  A
C1115      F1122   1.355       .  S
C1116      C1117   1.402   1_655  A
C1116      H1121   1.084   1_655  S
C1117      C1118   1.403   1_455  A
C1118      F1119   1.357   1_655  S
C1123      C1124   1.418       .  A
C1123      C1128   1.405       .  A
C1123      H1130   1.083       .  S
C1124      C1125   1.426       .  A
C1125      C1126   1.397       .  A
C1125      F1132   1.355       .  S
C1126      C1127   1.395       .  A
C1126      H1131   1.084       .  S
C1127      C1128   1.402       .  A
C1128      F1129   1.357       .  S
C1133      C1134   1.404       .  A
C1133      H1140   1.083       .  S
C1134      C1135   1.404       .  A
C1135      F1142   1.357       .  S
C1136      C1137   1.415       .  A
C1136      H1141   1.084       .  S
C1137      C1138   1.414   1_565  A
C1138      F1139   1.351       .  S
C1143      C1144   1.405       .  A
C1143      C1148   1.396       .  A
C1143      H1150   1.083       .  S
C1144      C1145   1.414       .  A
C1145      C1146   1.401       .  A
C1145      F1152   1.357       .  S
C1146      C1147   1.400       .  A
C1146      H1151   1.083       .  S
C1147      C1148   1.407       .  A
C1148      F1149   1.358       .  S
C1153      C1154   1.406       .  A
C1153      H1160   1.083       .  S
C1154      C1330   1.505       .  S
C1155      C1156   1.401       .  A
C1155      F1586   1.358       .  S
C1156      C1157   1.415       .  A
C1156      H1161   1.083       .  S
C1157      C1158   1.426       .  A
C1158      F1159   1.355       .  S
F1162      C1579   1.357       .  S
C1163      C1164   1.416       .  A
C1163      C1168   1.402       .  A
C1163      H1170   1.079       .  S
C1164      C1165   1.425       .  A
C1165      C1166   1.406       .  A
C1165      F1172   1.356       .  S
C1166      C1167   1.400       .  A
C1166      H1595   1.083       .  S
C1167      C1324   1.488       .  S
C1167      C1168   1.405       .  A
C1168      F1169   1.358       .  S
H1171      C1590   1.083       .  S
C1173      C1174   1.402   1_455  A
C1173      C1178   1.399       .  A
C1173      H1180   1.083   1_455  S
C1174      C1175   1.405   1_655  A
C1175      C1176   1.397       .  A
C1175      F1182   1.357       .  S
C1176      C1177   1.416       .  A
C1176      H1181   1.083       .  S
C1177      C1178   1.424       .  A
C1178      F1179   1.355       .  S
C1183      C1184   1.401       .  A
C1183      C1188   1.402       .  A
C1183      H1190   1.079       .  S
C1184      C1609   1.410       .  A
C1185      C1608   1.410       .  A
C1185      C1610   1.396       .  A
C1185      F1192   1.358       .  S
C1186      C1609   1.397       .  A
C1186      C1187   1.404       .  A
C1186      H1615   1.083   1_554  S
C1187      C1188   1.414       .  A
C1188      F1189   1.358       .  S
H1191      C1610   1.083       .  S
C1193      C1194   1.418       .  A
C1193      C1198   1.400       .  A
C1193      H1200   1.082       .  S
C1194      C1195   1.420       .  A
C1195      C1196   1.400       .  A
C1195      F1202   1.356       .  S
C1196      C1197   1.403       .  A
C1196      H1201   1.084       .  S
C1197      C1198   1.402       .  A
C1198      F1199   1.357       .  S
C1203      C1204   1.401       .  A
C1203      C1208   1.396       .  A
C1203      H1210   1.084       .  S
C1204      C1205   1.403       .  A
C1205      C1206   1.404       .  A
C1205      F1212   1.354       .  S
C1206      C1207   1.416       .  A
C1206      H1211   1.083       .  S
C1207      C1208   1.421       .  A
C1208      F1209   1.356       .  S
C1213      C1214   1.408       .  A
C1213      C1218   1.396       .  A
C1213      H1220   1.083       .  S
C1214      C1215   1.406       .  A
C1215      C1216   1.402       .  A
C1215      F1222   1.356       .  S
C1216      C1217   1.409       .  A
C1216      H1221   1.083       .  S
C1217      C1218   1.407       .  A
C1218      F1219   1.358       .  S
C1223      C1224   1.401       .  A
C1223      H1230   1.084       .  S
C1225      C1226   1.394       .  A
C1225      F1232   1.358       .  S
C1226      C1227   1.409       .  A
C1226      H1231   1.075       .  S
C1227      C1228   1.414       .  A
C1228      F1229   1.358       .  S
C1233      C1234   1.412       .  A
C1233      C1238   1.403       .  A
C1233      H1240   1.083       .  S
C1234      C1235   1.408       .  A
C1235      C1236   1.399       .  A
C1235      F1242   1.357       .  S
C1236      C1237   1.406       .  A
C1236      H1241   1.084       .  S
C1237      C1238   1.404       .  A
C1238      F1239   1.357       .  S
C1243      C1248   1.403       .  A
C1243      H1250   1.083       .  S
C1245      C1246   1.406       .  A
C1246      C1247   1.418       .  A
C1246      H1251   1.082       .  S
C1247      C1248   1.420       .  A
C1248      F1249   1.356       .  S
C1253      C1254   1.413       .  A
C1253      C1258   1.399       .  A
C1253      H1260   1.082       .  S
C1254      C1255   1.424       .  A
C1255      C1256   1.405       .  A
C1255      F1262   1.356       .  S
C1256      C1257   1.404       .  A
C1256      H1261   1.083       .  S
C1257      C1258   1.410       .  A
C1258      F1259   1.357       .  S
C1263      C1264   1.403       .  A
C1263      C1268   1.401       .  A
C1263      H1270   1.084       .  S
C1264      C1265   1.403       .  A
C1265      C1266   1.399       .  A
C1265      F1272   1.357       .  S
C1266      C1267   1.418       .  A
C1266      H1271   1.083       .  S
C1267      C1268   1.423       .  A
C1268      F1269   1.355       .  S
O1273      C1289   1.279       .  A
O1273     Zn1279   2.057       .  S
C1274      O1290   1.277       .  A
C1274      O1287   1.276       .  A
C1274      C1688   1.485       .  S
O1275      C1288   1.281       .  A
O1275     Cd1282   2.100       .  S
O1276      C1294   1.275       .  A
O1276     Cd1285   2.071       .  S
O1277      C1291   1.273       .  A
O1277     Cd1281   2.052       .  S
O1278      C1289   1.274       .  A
O1278     Cd1281   2.061       .  S
Zn1279     O1290   2.026       .  S
Zn1279     O1292   2.016       .  S
Zn1279     O1284   1.928       .  S
O1280      C1291   1.277       .  A
O1280     Cd1285   2.077       .  S
Cd1281     O1283   2.059       .  S
Cd1281     O1284   1.983       .  S
Cd1282     O1286   2.084       .  S
Cd1282     O1295   2.120       .  S
Cd1282     O1284   2.002       .  S
O1283      C1293   1.275       .  A
O1284     Cd1285   1.984       .  S
Cd1285     O1287   2.078       .  S
O1286      C1293   1.278       .  A
C1288      O1292   1.276       .  A
C1288      C1681   1.493       .  S
C1289      C1658   1.494       .  S
C1291      C1648   1.476       .  S
C1293      C1641   1.485       .  S
C1294      O1295   1.282       .  A
C1294      C1668   1.486       .  S
C1296      C1618   1.560       .  S
C1296      C1631   1.557       .  S
C1296      C1671   1.569       .  S
C1296      C1678   1.562       .  S
C1297      C1651   1.525   1_554  S
C1297      C1298   1.541       .  S
C1297      C1303   1.528   1_554  S
C1297      C1301   1.524       .  S
C1298      H1305   1.080   1_554  S
C1299      C1300   1.545       .  S
C1299      C1608   1.491       .  S
C1300      C1302   1.555       .  S
C1300      H1306   1.110       .  S
C1302      C1628   1.484       .  S
C1303      H1308   1.087       .  S
C1303      C1304   1.360   1_556  D
C1304      C1661   1.486   1_554  S
O1309      C1325   1.276       .  A
O1309     Zn1315   2.030       .  S
C1310      O1326   1.276       .  A
C1310      O1323   1.276       .  A
C1310      C1598   1.489       .  S
O1312      C1330   1.277       .  A
O1312     Cd1321   2.078       .  S
O1313      C1327   1.273       .  A
O1313     Cd1317   2.051       .  S
O1314      C1325   1.272       .  A
O1314     Cd1317   2.062       .  S
Zn1315     O1326   2.023       .  S
Zn1315     O1328   2.018       .  S
Zn1315     O1320   1.929       .  S
O1316      C1327   1.279       .  A
O1316     Cd1321   2.093       .  S
Cd1317     O1319   2.059       .  S
Cd1317     O1320   1.993       .  S
Cd1318     O1322   2.102       .  S
Cd1318     O1320   2.011       .  S
O1319      C1329   1.274       .  A
O1320     Cd1321   1.997       .  S
Cd1321     O1323   2.081       .  S
O1322      C1329   1.281       .  A
C1324      O1328   1.275       .  A
C1325      C1568   1.487       .  S
C1327      C1558   1.484       .  S
C1329      C1611   1.489       .  S
C1332      C1538   1.566       .  S
C1332      C1548   1.565       .  S
C1332      C1581   1.575       .  S
C1332      C1588   1.572       .  S
C1333      C1561   1.534       .  S
C1333      C1334   1.545       .  S
C1333      C1339   1.531       .  S
C1333      C1337   1.533       .  S
C1334      H1341   1.077       .  S
C1334      C1335   1.370       .  D
C1335      C1336   1.539       .  S
C1335      C1638   1.485       .  S
C1336      C1340   1.542       .  S
C1336      C1338   1.546       .  S
C1336      H1342   1.110       .  S
C1337      H1343   1.086       .  S
C1337      C1338   1.366       .  D
C1338      C1551   1.480       .  S
C1339      H1344   1.087       .  S
C1339      C1340   1.360       .  D
C1340      C1571   1.481       .  S
O1345      C1361   1.276       .  A
O1345     Zn1351   2.030       .  S
C1346      O1362   1.278       .  A
C1346      O1359   1.272       .  A
C1346      C1501   1.482       .  S
O1347      C1360   1.282       .  A
O1347     Cd1354   2.119       .  S
O1348      C1366   1.274       .  A
O1348     Cd1357   2.061       .  S
O1349      C1363   1.279       .  A
O1349     Cd1353   2.095       .  S
O1350      C1361   1.275       .  A
O1350     Cd1353   2.068       .  S
Zn1351     O1362   2.034       .  S
Zn1351     O1364   2.024       .  S
Zn1351     O1356   1.942       .  S
O1352      C1363   1.273       .  A
O1352     Cd1357   2.063       .  S
Cd1353     O1355   2.058       .  S
Cd1353     O1356   1.981       .  S
Cd1354     O1358   2.119       .  S
Cd1354     O1367   2.104       .  S
Cd1354     O1356   2.007       .  S
O1355      C1365   1.276       .  A
O1356     Cd1357   1.987       .  S
Cd1357     O1359   2.042       .  S
O1358      C1365   1.283       .  A
C1360      O1364   1.276       .  A
C1360      C1528   1.501       .  S
C1361      C1621   1.481       .  S
C1363      C1508   1.490       .  S
C1366      O1367   1.281       .  A
C1366      C1488   1.493       .  S
C1368      C1478   1.568       .  S
C1368      C1518   1.566       .  S
C1368      C1531   1.569       .  S
C1368      C1691   1.569       .  S
C1369      C1498   1.530       .  S
C1369      C1370   1.546       .  S
C1369      C1375   1.533       .  S
C1369      C1373   1.530       .  S
C1370      H1377   1.081       .  S
C1370      C1371   1.369       .  D
C1372      C1374   1.549       .  S
C1372      H1378   1.110       .  S
C1374      C1481   1.482       .  S
C1375      H1380   1.087       .  S
C1375      C1376   1.359       .  D
C1376      C1511   1.478       .  S
O1381      C1397   1.280       .  A
O1381     Zn1387   2.052       .  S
C1382      O1398   1.277       .  A
C1382      O1395   1.274       .  A
C1382      C1541   1.488       .  S
O1384      C1402   1.273       .  A
O1384     Cd1393   2.052       .  S
O1385      C1399   1.270       .  A
O1385     Cd1389   2.044       .  S
O1386      C1397   1.273       .  A
O1386     Cd1389   2.055       .  S
Zn1387     O1398   2.053       .  S
Zn1387     O1400   2.003   1_565  S
Zn1387     O1392   1.944       .  S
O1388      C1399   1.275       .  A
O1388     Cd1393   2.067       .  S
Cd1389     O1391   2.066       .  S
Cd1389     O1392   1.991       .  S
Cd1390     O1394   2.101       .  S
Cd1390     O1392   2.012       .  S
O1391      C1401   1.273       .  A
O1392     Cd1393   1.981       .  S
Cd1393     O1395   2.070       .  S
O1394      C1401   1.280       .  A
C1396      O1400   1.275       .  A
C1397      C1438   1.490   1_565  S
C1399      C1428   1.456       .  S
C1401      C1471   1.494       .  S
C1404      C1418   1.562       .  S
C1404      C1451   1.569       .  S
C1404      C1461   1.572       .  S
C1404      C1601   1.571       .  S
C1405      C1431   1.521       .  S
C1405      C1406   1.527       .  S
C1405      C1411   1.527       .  S
C1405      C1409   1.529       .  S
C1406      H1413   1.087       .  S
C1406      C1407   1.363       .  D
C1407      C1408   1.550       .  S
C1407      C1491   1.487       .  S
C1408      C1412   1.542       .  S
C1408      C1410   1.567       .  S
C1408      H1414   1.104       .  S
C1409      H1415   1.075       .  S
C1409      C1410   1.378       .  D
C1410      C1421   1.516       .  S
C1411      H1416   1.088       .  S
C1411      C1412   1.356       .  D
C1412      C1441   1.477       .  S
C1417      C1418   1.417       .  A
C1417      C1422   1.406       .  A
C1417      H1424   1.076       .  S
C1418      C1419   1.413       .  A
C1419      C1420   1.391       .  A
C1419      F1426   1.357       .  S
C1420      C1421   1.412       .  A
C1420      H1425   1.076       .  S
C1421      C1422   1.411       .  A
C1422      F1423   1.353       .  S
C1427      C1428   1.395       .  A
C1427      C1432   1.390       .  A
C1427      H1434   1.084       .  S
C1428      C1429   1.398       .  A
C1429      C1430   1.397       .  A
C1429      F1436   1.358       .  S
C1430      C1431   1.413       .  A
C1430      H1435   1.077       .  S
C1431      C1432   1.414       .  A
C1432      F1433   1.358       .  S
C1437      C1442   1.400       .  A
C1437      H1444   1.083       .  S
C1438      C1439   1.415       .  A
C1439      F1446   1.357       .  S
C1440      C1441   1.399       .  A
C1440      H1445   1.084       .  S
C1441      C1442   1.405       .  A
C1442      F1443   1.357       .  S
C1447      C1448   1.403       .  A
C1447      C1452   1.409       .  A
C1447      H1454   1.083       .  S
C1448      C1449   1.413       .  A
C1449      C1450   1.401       .  A
C1450      C1451   1.412       .  A
C1450      H1455   1.083       .  S
C1451      C1452   1.426       .  A
C1452      F1453   1.355       .  S
C1457      C1458   1.403       .  A
C1457      C1462   1.410       .  A
C1457      H1464   1.083       .  S
C1458      C1459   1.400       .  A
C1459      C1460   1.394       .  A
C1460      C1461   1.418       .  A
C1460      H1465   1.079       .  S
C1461      C1462   1.421       .  A
C1462      F1463   1.357       .  S
C1467      C1468   1.403       .  A
C1467      C1472   1.405       .  A
C1467      H1474   1.083       .  S
C1469      C1470   1.401       .  A
C1469      F1476   1.357       .  S
C1470      H1475   1.083       .  S
C1471      C1472   1.414       .  A
C1472      F1473   1.357       .  S
C1477      C1478   1.419       .  A
C1477      C1482   1.396       .  A
C1477      H1484   1.078       .  S
C1478      C1479   1.421       .  A
C1479      C1480   1.406       .  A
C1479      F1486   1.357       .  S
C1480      C1481   1.401       .  A
C1480      H1485   1.083       .  S
C1481      C1482   1.398       .  A
C1482      F1483   1.358       .  S
C1487      C1488   1.413       .  A
C1487      C1492   1.404       .  A
C1487      H1494   1.083       .  S
C1488      C1489   1.408       .  A
C1489      C1490   1.397       .  A
C1489      F1496   1.357       .  S
C1490      C1491   1.406       .  A
C1490      H1495   1.084       .  S
C1491      C1492   1.403       .  A
C1492      F1493   1.357       .  S
C1497      C1498   1.412       .  A
C1497      C1502   1.396       .  A
C1497      H1504   1.083       .  S
C1498      C1499   1.410       .  A
C1499      C1500   1.396       .  A
C1499      F1506   1.355       .  S
C1500      C1501   1.407       .  A
C1500      H1505   1.083       .  S
C1501      C1502   1.404       .  A
C1502      F1503   1.357       .  S
C1507      C1512   1.399       .  A
C1507      H1514   1.083       .  S
C1508      C1509   1.414       .  A
C1509      F1516   1.357       .  S
C1510      C1511   1.399       .  A
C1510      H1515   1.084       .  S
C1511      C1512   1.407       .  A
C1512      F1513   1.358       .  S
C1517      C1518   1.420       .  A
C1517      C1522   1.405       .  A
C1517      H1524   1.083       .  S
C1518      C1519   1.422       .  A
C1519      C1520   1.398       .  A
C1519      F1526   1.355       .  S
C1520      C1521   1.401       .  A
C1520      H1525   1.084       .  S
C1521      C1522   1.403       .  A
C1527      C1528   1.407       .  A
C1527      C1532   1.401       .  A
C1527      H1534   1.083       .  S
C1528      C1529   1.408       .  A
C1529      C1530   1.407       .  A
C1529      F1536   1.357       .  S
C1530      C1531   1.418       .  A
C1530      H1535   1.079       .  S
C1531      C1532   1.419       .  A
C1532      F1533   1.358       .  S
C1537      C1538   1.420       .  A
C1537      C1542   1.403       .  A
C1537      H1544   1.083       .  S
C1538      C1539   1.421       .  A
C1539      C1540   1.400       .  A
C1539      F1546   1.354       .  S
C1540      C1541   1.403   1_655  A
C1540      H1545   1.084   1_655  S
C1541      C1542   1.403   1_455  A
C1542      F1543   1.357   1_655  S
C1547      C1548   1.418       .  A
C1547      C1552   1.405       .  A
C1547      H1554   1.083       .  S
C1548      C1549   1.426       .  A
C1549      C1550   1.396       .  A
C1549      F1556   1.355       .  S
C1550      C1551   1.394       .  A
C1550      H1555   1.084       .  S
C1551      C1552   1.402       .  A
C1552      F1553   1.357       .  S
C1557      C1558   1.405       .  A
C1557      H1564   1.083       .  S
C1558      C1559   1.404       .  A
C1559      F1566   1.357       .  S
C1560      C1561   1.413       .  A
C1560      H1565   1.084       .  S
C1561      C1562   1.414   1_565  A
C1562      F1563   1.352       .  S
C1567      C1568   1.405       .  A
C1567      C1572   1.395       .  A
C1567      H1574   1.083       .  S
C1568      C1569   1.414       .  A
C1569      C1570   1.401       .  A
C1569      F1576   1.357       .  S
C1570      C1571   1.401       .  A
C1570      H1575   1.083       .  S
C1571      C1572   1.407       .  A
C1572      F1573   1.358       .  S
C1577      C1578   1.405       .  A
C1577      H1584   1.083       .  S
C1579      C1580   1.400   1_554  A
C1580      C1581   1.415       .  A
C1580      H1585   1.083   1_556  S
C1581      C1582   1.425       .  A
C1582      F1583   1.355       .  S
C1587      C1588   1.416       .  A
C1587      C1592   1.402   1_556  A
C1587      H1594   1.079       .  S
C1588      C1589   1.424       .  A
C1589      C1590   1.407       .  A
C1589      F1596   1.356       .  S
C1590      C1591   1.401       .  A
C1591      C1592   1.405   1_556  A
C1592      F1593   1.358       .  S
C1597      C1598   1.403   1_455  A
C1597      C1602   1.399       .  A
C1597      H1604   1.083   1_455  S
C1598      C1599   1.405   1_655  A
C1599      C1600   1.400       .  A
C1599      F1606   1.357       .  S
C1600      C1601   1.417       .  A
C1600      H1605   1.083       .  S
C1601      C1602   1.423       .  A
C1602      F1603   1.355       .  S
C1607      C1608   1.401       .  A
C1607      C1612   1.403       .  A
C1607      H1614   1.080       .  S
C1609      F1616   1.358   1_554  S
C1610      C1611   1.404       .  A
C1611      C1612   1.414       .  A
C1612      F1613   1.358       .  S
C1617      C1618   1.418       .  A
C1617      C1622   1.399       .  A
C1617      H1624   1.082       .  S
C1618      C1619   1.419       .  A
C1619      C1620   1.398       .  A
C1619      F1626   1.356       .  S
C1620      C1621   1.402       .  A
C1620      H1625   1.084       .  S
C1621      C1622   1.403       .  A
C1622      F1623   1.357       .  S
C1627      C1628   1.400       .  A
C1627      C1632   1.396       .  A
C1627      H1634   1.084       .  S
C1628      C1629   1.402       .  A
C1629      C1630   1.403       .  A
C1629      F1636   1.354       .  S
C1630      C1631   1.415       .  A
C1630      H1635   1.083       .  S
C1631      C1632   1.422       .  A
C1632      F1633   1.356       .  S
C1637      C1638   1.405       .  A
C1637      C1642   1.396       .  A
C1637      H1644   1.083       .  S
C1638      C1639   1.404       .  A
C1639      C1640   1.399       .  A
C1639      F1646   1.356       .  S
C1640      C1641   1.409       .  A
C1640      H1645   1.083       .  S
C1641      C1642   1.409       .  A
C1642      F1643   1.357       .  S
C1647      C1648   1.401       .  A
C1647      H1654   1.083       .  S
C1649      C1650   1.392       .  A
C1649      F1656   1.358       .  S
C1650      C1651   1.408       .  A
C1650      H1655   1.076       .  S
C1651      C1652   1.414       .  A
C1652      F1653   1.358       .  S
C1657      C1658   1.411       .  A
C1657      C1662   1.401       .  A
C1657      H1664   1.083       .  S
C1658      C1659   1.409       .  A
C1659      C1660   1.401       .  A
C1659      F1666   1.357       .  S
C1660      C1661   1.407       .  A
C1660      H1665   1.084       .  S
C1661      C1662   1.402       .  A
C1662      F1663   1.357       .  S
C1667      C1672   1.403       .  A
C1667      H1674   1.083       .  S
C1669      C1670   1.406       .  A
C1670      C1671   1.419       .  A
C1670      H1675   1.082       .  S
C1671      C1672   1.420       .  A
C1672      F1673   1.356       .  S
C1677      C1678   1.413       .  A
C1677      C1682   1.398       .  A
C1677      H1684   1.083       .  S
C1678      C1679   1.424       .  A
C1679      C1680   1.403       .  A
C1679      F1686   1.356       .  S
C1680      C1681   1.403       .  A
C1680      H1685   1.083       .  S
C1681      C1682   1.409       .  A
C1682      F1683   1.358       .  S
C1687      C1688   1.403       .  A
C1687      C1692   1.403       .  A
C1687      H1694   1.084       .  S
C1688      C1689   1.403       .  A
C1689      C1690   1.396       .  A
C1689      F1696   1.357       .  S
C1690      C1691   1.417       .  A
C1690      H1695   1.083       .  S
C1691      C1692   1.425       .  A
C1692      F1693   1.355       .  S
