geometry optimzed in LAMMPS
_audit_creation_date              2020-11-30 
_audit_creation_method            'lammps2cif' 
_symmetry_space_group_name_H-M    'P1' 
_symmetry_Int_Tables_number       1 
_symmetry_cell_setting            triclinic 
loop_ 
_symmetry_equiv_pos_as_xyz 
  x,y,z 
_cell_length_a                    39.61030137 
_cell_length_b                    39.855792194313445 
_cell_length_c                    39.466699638995024 
_cell_angle_alpha                 89.90243452295364 
_cell_angle_beta                  89.40888373559031 
_cell_angle_gamma                 89.78239492037106 
loop_ 
_atom_site_label 
_atom_site_type_symbol 
_atom_site_fract_x 
_atom_site_fract_y 
_atom_site_fract_z 
_atom_site_charge 
N1          N  0.00081300  0.25054049  0.19938132    -0.36800
N2          N  0.00044288  0.19967469  0.25135707    -0.57400
N3          N  0.00159023  0.25109180  0.30264700    -0.36800
N4          N  0.00336540  0.30197984  0.25093886    -0.57400
C5          C  0.00856933  0.22273208  0.18116633     0.26800
C6          C  0.01086488  0.27752164  0.18106152     0.26800
C7          C  0.01095971  0.22369900  0.32034398     0.26800
C8          C  0.01191089  0.27812087  0.32012049     0.26800
C9          C  0.99117464  0.18125650  0.22433642     0.35400
C10         C  0.99150523  0.18194231  0.27918741     0.35400
C11         C  0.99697165  0.32114715  0.22357599     0.35400
C12         C  0.99623579  0.32107703  0.27827730     0.35400
C13         C  0.02390266  0.23215142  0.15088580    -0.22100
C14         C  0.02528281  0.26678922  0.15079441    -0.22100
C15         C  0.02815922  0.23336503  0.34917798    -0.22100
C16         C  0.02849587  0.26796791  0.34917528    -0.22100
C17         C  0.97587095  0.15181107  0.23500293    -0.23200
C18         C  0.97603580  0.15226696  0.26985987    -0.23200
C19         C  0.98545301  0.35257090  0.23354451    -0.23200
C20         C  0.98498698  0.35251592  0.26836747    -0.23200
C21         C  0.99975971  0.18947734  0.19050652    -0.18500
C22         C  0.00468204  0.31142530  0.19004655    -0.18500
C23         C  0.00351932  0.31136975  0.31168704    -0.18500
C24         C  0.00079765  0.19081240  0.31244761    -0.18500
H25         H  0.03274054  0.21580970  0.13077208     0.14400
H26         H  0.03534057  0.28233301  0.13059776     0.14400
H27         H  0.03828827  0.21723245  0.36871220     0.14400
H28         H  0.03904588  0.28383085  0.36859429     0.14400
H29         H  0.96637529  0.13178042  0.21931299     0.12700
H30         H  0.96661327  0.13266973  0.28640924     0.12700
H31         H  0.97895146  0.37358737  0.21745272     0.12700
H32         H  0.97815488  0.37346073  0.28449578     0.12700
H33         H  0.98572963  0.25124523  0.22113259     0.25900
H34         H  0.98491078  0.25144645  0.28239802     0.25900
O35         O  0.99922350  0.09573648  0.05522187    -0.86700
O36         O  0.99494069  0.40542918  0.05646313    -0.86900
O37         O  0.44838974  0.00083281  0.09869615    -0.88500
O38         O  0.05844508  0.00244103  0.09452105    -0.87300
O39         O  0.09545648  0.49693508  0.05631044    -0.86900
O40         O  0.40427605  0.50189510  0.05514431    -0.88300
O41         O  0.00084812  0.44590297  0.09734309    -0.86700
O42         O  0.00054219  0.05514199  0.09654493    -0.86300
Zr43       Zr  0.99964066  0.50025211  0.06893631     2.84300
O44         O  0.03199048  0.46471711  0.03475470    -1.08300
O45         O  0.46756899  0.03472131  0.03576226    -1.09000
C46         C  0.99909054  0.08605654  0.08650523     1.06400
C47         C  0.99806296  0.41513807  0.08753548     1.06300
C48         C  0.41731756  0.00122114  0.08940408     1.09300
C49         C  0.08931273  0.00188805  0.08336170     1.07100
H50         H  0.44893023  0.45393132  0.04930541     0.32700
O51         O  0.46367610  0.46755162  0.03533235    -1.29300
H52         H  0.05007882  0.04752668  0.04717435     0.32300
O53         O  0.03570454  0.03347718  0.03369218    -1.30900
O54         O  0.99915496  0.40382674  0.44489194    -0.86700
O55         O  0.00426507  0.09420870  0.44416160    -0.88200
O56         O  0.40279645  0.44831169  0.49656909    -0.86800
O57         O  0.09408816  0.43777151  0.50097210    -0.86800
O58         O  0.09876945  0.04946319  0.49979739    -0.86500
O59         O  0.40644306  0.05588127  0.50220331    -0.86300
O60         O  0.45051261  0.49943109  0.40178343    -0.86700
O61         O  0.06064038  0.49987104  0.40530794    -0.86200
O62         O  0.40864641  0.50027433  0.44256252    -0.87200
O63         O  0.10033340  0.49375298  0.44694877    -0.86400
O64         O  0.44191952  0.40584198  0.49569376    -0.86800
O65         O  0.44849978  0.09541733  0.50031361    -0.86500
O66         O  0.05900076  0.09177025  0.50010057    -0.86200
O67         O  0.05090942  0.39933185  0.50085494    -0.86600
O68         O  0.00464772  0.44443504  0.40378047    -0.86900
O69         O  0.00256035  0.05401409  0.40273519    -0.88200
Zr70       Zr  0.99837062  0.43096958  0.49992899     2.83100
Zr71       Zr  0.00318663  0.06639830  0.49928984     2.83500
Zr72       Zr  0.43419481  0.50113211  0.49902234     2.84100
Zr73       Zr  0.07046363  0.49479829  0.50063114     2.83400
Zr74       Zr  0.00421519  0.49894579  0.43135897     2.84200
O75         O  0.03658914  0.03140901  0.46477229    -1.08800
O76         O  0.46746690  0.46637578  0.46476166    -1.08300
C77         C  0.00233421  0.41369634  0.41387544     1.06400
C78         C  0.00375222  0.08475826  0.41285268     1.09000
C79         C  0.41113829  0.41693899  0.49502402     1.06500
C80         C  0.08237337  0.40749617  0.50095380     1.06900
C81         C  0.08967671  0.08068944  0.50043657     1.06500
C82         C  0.41716561  0.08642890  0.50191805     1.06000
C83         C  0.41924074  0.49961338  0.41140082     1.06500
C84         C  0.09133580  0.49687600  0.41586416     1.06000
H85         H  0.45377408  0.04875247  0.45151816     0.32700
O86         O  0.46760630  0.03429357  0.46531333    -1.29900
H87         H  0.04918703  0.44834861  0.45223360     0.32700
O88         O  0.03540966  0.46287115  0.46605417    -1.31300
N89         N  0.25001746  0.00114701  0.30092889    -0.36800
N90         N  0.19959633  0.01111513  0.24750260    -0.57400
N91         N  0.25191854  0.00085348  0.19766585    -0.36800
N92         N  0.30187979  0.99324831  0.25125967    -0.57400
C93         C  0.22322450  0.01331755  0.31838988     0.26800
C94         C  0.27756432  0.00547464  0.32046133     0.26800
C95         C  0.22651182  0.01220061  0.17799070     0.26800
C96         C  0.28094256  0.00500873  0.17997438     0.26800
C97         C  0.17946391  0.00540353  0.27466188     0.35400
C98         C  0.18053168  0.00532452  0.21993330     0.35400
C99         C  0.32024934  0.98576152  0.27890655     0.35400
C100        C  0.32129632  0.98566388  0.22412626     0.35400
C101        C  0.23365433  0.02541892  0.34946515    -0.22100
C102        C  0.26807950  0.02065864  0.35069526    -0.22100
C103        C  0.23945245  0.02344219  0.14728863    -0.22100
C104        C  0.27385610  0.01887986  0.14850181    -0.22100
C105        C  0.14738295  0.99643653  0.26438905    -0.23200
C106        C  0.14812109  0.99617039  0.22961263    -0.23200
C107        C  0.35143805  0.97287545  0.26933917    -0.23200
C108        C  0.35216633  0.97292700  0.23453523    -0.23200
C109        C  0.18933520  0.00983509  0.30854589    -0.18500
C110        C  0.31061604  0.99441609  0.31226351    -0.18500
C111        C  0.31328399  0.99446455  0.19055012    -0.18500
C112        C  0.19182235  0.01001322  0.18625152    -0.18500
H113        H  0.21795558  0.03599695  0.36938572     0.14400
H114        H  0.28416235  0.02702459  0.37171564     0.14400
H115        H  0.22551270  0.03345481  0.12607620     0.14400
H116        H  0.29152596  0.02461288  0.12822736     0.14400
H117        H  0.12573857  0.99067833  0.28028835     0.12700
H118        H  0.12718646  0.99008041  0.21335744     0.12700
H119        H  0.37195657  0.96548527  0.28568144     0.12700
H120        H  0.37345672  0.96564424  0.21875273     0.12700
H121        H  0.24855607  0.98672666  0.27905649     0.25900
H122        H  0.24924729  0.98735864  0.22009378     0.25900
N123        N  0.24812321  0.29887609  0.49259620    -0.36800
N124        N  0.30227185  0.24994524  0.49409087    -0.57400
N125        N  0.25200191  0.19638557  0.50435485    -0.36800
N126        N  0.19799814  0.24540115  0.49934370    -0.57400
C127        C  0.27452711  0.31828462  0.48263217     0.26800
C128        C  0.21934240  0.31599125  0.48587246     0.26800
C129        C  0.28032731  0.17802417  0.49892937     0.26800
C130        C  0.22529848  0.17566038  0.50029057     0.26800
C131        C  0.32057955  0.27842708  0.49736908     0.35400
C132        C  0.32245120  0.22423292  0.50377431     0.35400
C133        C  0.17729172  0.27220557  0.50288672     0.35400
C134        C  0.17929829  0.21799851  0.50683525     0.35400
C135        C  0.26226681  0.34798817  0.46906015    -0.22100
C136        C  0.22756141  0.34671683  0.47145816    -0.22100
C137        C  0.27149358  0.14508243  0.49195236    -0.22100
C138        C  0.23682938  0.14358275  0.49294337    -0.22100
C139        C  0.35250888  0.27064664  0.50921480    -0.23200
C140        C  0.35375494  0.23637693  0.51303926    -0.23200
C141        C  0.14518411  0.26168066  0.51240418    -0.23200
C142        C  0.14645621  0.22734310  0.51479136    -0.23200
C143        C  0.30923978  0.31114534  0.48843065    -0.18500
C144        C  0.18610530  0.30570683  0.49484918    -0.18500
C145        C  0.19084014  0.18451353  0.50431537    -0.18500
C146        C  0.31393425  0.18974055  0.50195233    -0.18500
H147        H  0.27681589  0.36885225  0.45925682     0.14400
H148        H  0.21041833  0.36648696  0.46388831     0.14400
H149        H  0.28824357  0.12415420  0.48679282     0.14400
H150        H  0.22184809  0.12133348  0.48879722     0.14400
H151        H  0.37290269  0.28780360  0.51442186     0.12700
H152        H  0.37530130  0.22199214  0.52155323     0.12700
H153        H  0.12289028  0.27700145  0.51640750     0.12700
H154        H  0.12551945  0.21109056  0.52127136     0.12700
H155        H  0.24961729  0.27731583  0.50729086     0.25900
H156        H  0.25122366  0.22075781  0.51353522     0.25900
C157        C  0.32912088  0.36762744  0.50852466    -0.09400
C158        C  0.33431434  0.33961562  0.48743490     0.06800
C159        C  0.36361789  0.33900786  0.46667088    -0.03100
C160        C  0.38827837  0.36408443  0.46982021    -0.07600
C161        C  0.38357758  0.39154675  0.49178470     0.05900
C162        C  0.35270353  0.39382895  0.51001769    -0.02600
Br163      Br  0.33557188  0.43903212  0.03236303    -0.02300
H164        H  0.30287590  0.37527281  0.02523095     0.09800
H165        H  0.41099419  0.36249117  0.45437821     0.07900
Br166      Br  0.37039541  0.30549348  0.43239054    -0.02700
C167        C  0.39076257  0.13714468  0.47685684    -0.09400
C168        C  0.39141748  0.11326796  0.50298824     0.06800
C169        C  0.36036662  0.11413123  0.02134426    -0.03100
C170        C  0.33684843  0.14043742  0.02098736    -0.07600
C171        C  0.34166514  0.16426364  0.50258023     0.05900
C172        C  0.36578472  0.16207760  0.47611103    -0.02600
Br173      Br  0.36431846  0.19109168  0.43728166    -0.02300
H174        H  0.40906196  0.13566772  0.45630462     0.09800
H175        H  0.31463777  0.13886331  0.03716583     0.07900
Br176      Br  0.35046422  0.07684176  0.05055361    -0.02700
C177        C  0.14114571  0.34286901  0.03223654    -0.09400
C178        C  0.15879862  0.33143156  0.49599653     0.06800
C179        C  0.14271531  0.34260865  0.46635529    -0.03100
C180        C  0.11711730  0.36680270  0.46857872    -0.07600
C181        C  0.10711979  0.37998147  0.50001320     0.05900
C182        C  0.11574512  0.36740406  0.03364701    -0.02600
Br183      Br  0.09473219  0.37725385  0.07655100    -0.02300
H184        H  0.15002995  0.33156928  0.05549866     0.09800
H185        H  0.10495294  0.37540179  0.44568992     0.07900
Br186      Br  0.15462434  0.32534011  0.42248651    -0.02700
C187        C  0.14167900  0.10680086  0.01855829    -0.09400
C188        C  0.11642592  0.10611741  0.50121175     0.06800
C189        C  0.12509100  0.12412800  0.47176305    -0.03100
C190        C  0.14936262  0.14950030  0.47320111    -0.07600
C191        C  0.16521913  0.15728014  0.50383527     0.05900
C192        C  0.16671736  0.13158067  0.01963440    -0.02600
Br193      Br  0.19875756  0.12981711  0.05575687    -0.02300
H194        H  0.14229829  0.08643907  0.03677735     0.09800
H195        H  0.15593397  0.16322615  0.45037244     0.07900
Br196      Br  0.10448298  0.11434684  0.42909431    -0.02700
C197        C  0.36192111  0.02051865  0.33677828    -0.09400
C198        C  0.33713972  0.99548909  0.33873198     0.06800
C199        C  0.34410076  0.46891247  0.36230276    -0.03100
C200        C  0.36886837  0.47232987  0.38708523    -0.07600
C201        C  0.39337101  0.49760679  0.38472314     0.05900
C202        C  0.38717123  0.02277330  0.36121104    -0.02600
Br203      Br  0.41769695  0.06000935  0.35846277    -0.02300
H204        H  0.36122264  0.03875378  0.31640233     0.09800
H205        H  0.36927999  0.45483603  0.40813224     0.07900
Br206      Br  0.31250466  0.43277580  0.36690715    -0.02700
C207        C  0.11746970  0.03017054  0.36907869    -0.09400
C208        C  0.11849687  0.49759962  0.39037792     0.06800
C209        C  0.14164805  0.47091754  0.38681184    -0.03100
C210        C  0.16625261  0.47209704  0.36139569    -0.07600
C211        C  0.16342517  0.00725106  0.33551529     0.05900
C212        C  0.14183449  0.03416556  0.34362183    -0.02600
Br213      Br  0.14522679  0.07680331  0.32127469    -0.02300
H214        H  0.10194041  0.05134893  0.37637178     0.09800
H215        H  0.18358860  0.45120451  0.35824010     0.07900
Br216      Br  0.14073813  0.43214374  0.41535645    -0.02700
C217        C  0.11459337  0.03013801  0.13296262    -0.09400
C218        C  0.11655435  0.00475061  0.10839798     0.06800
C219        C  0.14062019  0.47757644  0.11166123    -0.03100
C220        C  0.16483086  0.47832008  0.13710794    -0.07600
C221        C  0.16669879  0.01028596  0.15837439     0.05900
C222        C  0.13975518  0.03353231  0.15735705    -0.02600
Br223      Br  0.13668505  0.07079065  0.18800531    -0.02300
H224        H  0.09368131  0.04775128  0.13281800     0.09800
H225        H  0.18621682  0.46132401  0.13562108     0.07900
Br226      Br  0.14854171  0.44687396  0.07507149    -0.02700
C227        C  0.36508164  0.47376162  0.11213180    -0.09400
C228        C  0.39195285  0.99967343  0.11629589     0.06800
C229        C  0.38241931  0.02845821  0.13453732    -0.03100
C230        C  0.35714063  0.02614367  0.15924491    -0.07600
C231        C  0.34102393  0.99547766  0.16552139     0.05900
C232        C  0.33937234  0.47195093  0.13632172    -0.02600
Br233      Br  0.30973930  0.43395564  0.13589368    -0.02300
H234        H  0.36810282  0.45370990  0.09394415     0.09800
H235        H  0.34950837  0.04837714  0.17315226     0.07900
Br236      Br  0.40284803  0.07127143  0.12620863    -0.02700
C237        C  0.02092545  0.13530702  0.33268459    -0.09400
C238        C  0.00183183  0.16433191  0.33899899     0.06800
C239        C  0.48318248  0.16681655  0.36953350    -0.03100
C240        C  0.48494336  0.14096694  0.39345453    -0.07600
C241        C  0.00354931  0.11155739  0.38684243     0.05900
C242        C  0.02083365  0.10855057  0.35548766    -0.02600
Br243      Br  0.04379771  0.06866564  0.34102356    -0.02300
H244        H  0.03508675  0.13297948  0.30915237     0.09800
H245        H  0.47057004  0.14332267  0.41684914     0.07900
Br246      Br  0.45301167  0.20355055  0.37893535    -0.02700
C247        C  0.47790634  0.36313692  0.38794903    -0.09400
C248        C  0.00330941  0.38752948  0.38788680     0.06800
C249        C  0.02913212  0.38638937  0.36308037    -0.03100
C250        C  0.02913497  0.36103920  0.33877653    -0.07600
C251        C  0.00342163  0.33705099  0.33852657     0.05900
C252        C  0.47755504  0.33822651  0.36317243    -0.02600
Br253      Br  0.44038690  0.30752565  0.36274200    -0.02300
H254        H  0.45780070  0.36402520  0.40675960     0.09800
H255        H  0.04911155  0.36010064  0.31983257     0.07900
Br256      Br  0.06556079  0.41792983  0.36184470    -0.02700
C257        C  0.47830793  0.33737152  0.13958070    -0.09400
C258        C  0.00450544  0.33757041  0.16311045     0.06800
C259        C  0.02823669  0.36389350  0.16217242    -0.03100
C260        C  0.02531838  0.38934704  0.13783486    -0.07600
C261        C  0.99926843  0.38883618  0.11393655     0.05900
C262        C  0.47542424  0.36272628  0.11523965    -0.02600
Br263      Br  0.43687735  0.36188990  0.08619502    -0.02300
H264        H  0.45945725  0.31776331  0.14071723     0.09800
H265        H  0.04385733  0.40927272  0.13714001     0.05800
Br266      Br  0.06526367  0.36588694  0.19312106    -0.02700
C267        C  0.47789405  0.16560908  0.13631290    -0.09400
C268        C  0.99955790  0.16253269  0.16408709     0.06800
C269        C  0.02045880  0.13381042  0.16630373    -0.03100
C270        C  0.01933688  0.10908235  0.14116604    -0.07600
C271        C  0.99810680  0.11241246  0.11308321     0.05900
C272        C  0.47702381  0.14100811  0.11093439    -0.02600
Br273      Br  0.44508254  0.14700570  0.07511750    -0.02300
H274        H  0.46134509  0.18723016  0.13449189     0.09800
H275        H  0.03586817  0.08745712  0.14315573     0.07900
Br276      Br  0.05224804  0.12758796  0.20217862    -0.02700
N277        N  0.99924375  0.24918415  0.69903331    -0.36800
N278        N  0.99867138  0.19863433  0.75193479    -0.57400
N279        N  0.99208051  0.25151721  0.80295494    -0.36800
N280        N  0.99636964  0.30208054  0.74998581    -0.57400
C281        C  0.00910844  0.22167232  0.68132429     0.26800
C282        C  0.00758958  0.27643930  0.68023950     0.26800
C283        C  0.99759076  0.22458351  0.82310993     0.26800
C284        C  0.99698949  0.27933653  0.82190313     0.26800
C285        C  0.99476444  0.17856157  0.72460627     0.35400
C286        C  0.99105211  0.17982460  0.77950845     0.35400
C287        C  0.99194809  0.32084365  0.72184390     0.35400
C288        C  0.98906731  0.32220600  0.77661417     0.35400
C289        C  0.02397546  0.23164521  0.65098320    -0.22100
C290        C  0.02288086  0.26619411  0.65023815    -0.22100
C291        C  0.00551356  0.23540792  0.85545164    -0.22100
C292        C  0.00514137  0.26993969  0.85468501    -0.22100
C293        C  0.98446712  0.14691264  0.73493282    -0.23200
C294        C  0.98250080  0.14760585  0.76970014    -0.23200
C295        C  0.98184474  0.35306806  0.73063127    -0.23200
C296        C  0.98019501  0.35396607  0.76538112    -0.23200
C297        C  0.00280035  0.18786291  0.69076465    -0.18500
C298        C  0.99988398  0.31015907  0.68858610    -0.18500
C299        C  0.99247818  0.31291958  0.81095375    -0.18500
C300        C  0.99392684  0.19055302  0.81352932    -0.18500
H301        H  0.03422678  0.21565797  0.63123881     0.14400
H302        H  0.03212199  0.28198584  0.62984816     0.14400
H303        H  0.01070704  0.22003957  0.87744030     0.14400
H304        H  0.00998634  0.28625722  0.87597212     0.14400
H305        H  0.97950211  0.12535405  0.71914737     0.12700
H306        H  0.97565370  0.12673811  0.78593113     0.12700
H307        H  0.97688557  0.37395238  0.71380924     0.12700
H308        H  0.97352029  0.37558052  0.78064511     0.12700
H309        H  0.98398182  0.24930297  0.72062126     0.25900
H310        H  0.98219124  0.25086099  0.77872393     0.25900
O311        O  0.00211211  0.09492125  0.55398471    -0.86700
O312        O  0.99502261  0.40386110  0.55518975    -0.86900
O313        O  0.44890497  0.00231646  0.59685115    -0.88500
O314        O  0.05867407  0.99813308  0.59426329    -0.87300
O315        O  0.09868442  0.49199000  0.55497981    -0.86900
O316        O  0.40762185  0.50159939  0.55512082    -0.88300
O317        O  0.00075530  0.44441932  0.59610444    -0.86700
O318        O  0.00350361  0.05422887  0.59516472    -0.86300
Zr319      Zr  0.00262769  0.49921586  0.56821479     2.84300
O320        O  0.03435357  0.46256114  0.53440582    -1.08300
O321        O  0.46889861  0.03319596  0.53399608    -1.09000
C322        C  0.00248200  0.08527645  0.58524846     1.06400
C323        C  0.99736040  0.41369705  0.58622992     1.06300
C324        C  0.41796106  0.00379651  0.58715313     1.09300
C325        C  0.08974510  0.99673787  0.58373488     1.07100
H326        H  0.45145395  0.45327978  0.54851046     0.32700
O327        O  0.46634376  0.46663356  0.53442818    -1.29300
H328        H  0.05155261  0.04473249  0.54663866     0.32300
O329        O  0.03710564  0.03125421  0.53265955    -1.30900
O330        O  0.99463950  0.40525088  0.94532859    -0.86700
O331        O  0.99963749  0.09521029  0.94527519    -0.88200
O332        O  0.40070191  0.45056089  0.99743300    -0.86800
O333        O  0.09214151  0.44091487  0.00370532    -0.86800
O334        O  0.09693367  0.05250588  0.99731129    -0.86500
O335        O  0.40548085  0.05786738  0.00193244    -0.86300
O336        O  0.44731444  0.50189020  0.90421317    -0.86700
O337        O  0.05739819  0.49664825  0.90559751    -0.86200
O338        O  0.40544780  0.50238119  0.94502291    -0.87200
O339        O  0.09743138  0.49469744  0.94713388    -0.86400
O340        O  0.43950860  0.40784618  0.99733644    -0.86800
O341        O  0.44714884  0.09759070  0.99966613    -0.86500
O342        O  0.05676209  0.09422982  0.99775592    -0.86200
O343        O  0.04925385  0.40208604  0.00265598    -0.86600
O344        O  0.99901253  0.44615583  0.90432971    -0.86900
O345        O  0.00100499  0.05459792  0.90393632    -0.88200
Zr346      Zr  0.99620069  0.43250119  0.00074685     2.83100
Zr347      Zr  0.00128651  0.06776295  0.00016581     2.83500
Zr348      Zr  0.43211455  0.50291863  0.00019332     2.84100
Zr349      Zr  0.06811729  0.49761017  0.00141904     2.83400
Zr350      Zr  0.00170909  0.50064234  0.93233953     2.84200
O351        O  0.03494204  0.03320816  0.96526294    -1.08800
O352        O  0.46530290  0.46821655  0.96596855    -1.08300
C353        C  0.99622750  0.41534500  0.91420817     1.06400
C354        C  0.00002268  0.08544931  0.91415552     1.09000
C355        C  0.40882514  0.41919616  0.99640964     1.06500
C356        C  0.08058374  0.41058258  0.00375518     1.06900
C357        C  0.08766138  0.08369053  0.99687042     1.06500
C358        C  0.41581175  0.08862683  0.00091389     1.06000
C359        C  0.41611562  0.50211375  0.91402702     1.06500
C360        C  0.08823892  0.49461520  0.91588231     1.06000
H361        H  0.45261025  0.04855354  0.95245137     0.32700
O362        O  0.46663001  0.03450098  0.96645700    -1.29900
H363        H  0.04667003  0.45014449  0.95336598     0.32700
O364        O  0.03307801  0.46489017  0.96716057    -1.31300
N365        N  0.25336137  0.99850411  0.80162563    -0.36800
N366        N  0.20135354  0.00235094  0.74975537    -0.57400
N367        N  0.25301709  0.00154947  0.69868594    -0.36800
N368        N  0.30497363  0.99998402  0.75044292    -0.57400
C369        C  0.22586924  0.00690547  0.82029744     0.26800
C370        C  0.28078708  0.00499922  0.82057297     0.26800
C371        C  0.22573668  0.01074779  0.68045797     0.26800
C372        C  0.28066922  0.01146402  0.68118474     0.26800
C373        C  0.18337466  0.99258985  0.77722782     0.35400
C374        C  0.18313793  0.99351306  0.72241621     0.35400
C375        C  0.32425049  0.99196193  0.77724351     0.35400
C376        C  0.32400483  0.99409870  0.72263386     0.35400
C377        C  0.23593992  0.01910882  0.85151625    -0.22100
C378        C  0.27069027  0.01769687  0.85175762    -0.22100
C379        C  0.23613516  0.02693356  0.65108308    -0.22100
C380        C  0.27090772  0.02749705  0.65158341    -0.22100
C381        C  0.15368853  0.97726986  0.76735036    -0.23200
C382        C  0.15358458  0.97778881  0.73250417    -0.23200
C383        C  0.35578918  0.98091985  0.76653814    -0.23200
C384        C  0.35557769  0.98204771  0.73176115    -0.23200
C385        C  0.19220298  0.00024057  0.81091113    -0.18500
C386        C  0.31439219  0.99737666  0.81111529    -0.18500
C387        C  0.31421610  0.00293057  0.68958449    -0.18500
C388        C  0.19207553  0.00221656  0.68882802    -0.18500
H389        H  0.21992930  0.02730689  0.87230968     0.14400
H390        H  0.28665748  0.02468010  0.87267570     0.14400
H391        H  0.22036120  0.03676888  0.63113417     0.14400
H392        H  0.28718758  0.03763468  0.63192342     0.14400
H393        H  0.13399344  0.96720293  0.78358323     0.12700
H394        H  0.13383427  0.96823457  0.71646815     0.12700
H395        H  0.37682847  0.97338317  0.78213873     0.12700
H396        H  0.37652058  0.97551501  0.71518871     0.12700
H397        H  0.25315435  0.98499234  0.77910478     0.25900
H398        H  0.25294886  0.98540784  0.71946235     0.25900
N399        N  0.24496619  0.30202524  0.99844850    -0.36800
N400        N  0.30029390  0.25377568  0.99572034    -0.57400
N401        N  0.25164639  0.19956048  0.99910015    -0.36800
N402        N  0.19646890  0.24754161  0.99917904    -0.57400
C403        C  0.27107102  0.32219870  0.98934780     0.26800
C404        C  0.21596310  0.31922975  0.99299354     0.26800
C405        C  0.28040556  0.18340836  0.98986894     0.26800
C406        C  0.22551717  0.17981932  0.99008904     0.26800
C407        C  0.31694171  0.28223493  0.00340543     0.35400
C408        C  0.32038787  0.22796308  0.00514128     0.35400
C409        C  0.17491888  0.27331348  0.00506369     0.35400
C410        C  0.17868794  0.21905243  0.00420515     0.35400
C411        C  0.25831062  0.35256746  0.97777866    -0.22100
C412        C  0.22372077  0.35099337  0.98086075    -0.22100
C413        C  0.27248691  0.15323827  0.97449662    -0.22100
C414        C  0.23779209  0.15094300  0.97468561    -0.22100
C415        C  0.34757472  0.27446090  0.01829997    -0.23200
C416        C  0.34980259  0.23999531  0.01929376    -0.23200
C417        C  0.14316736  0.26114489  0.01345093    -0.23200
C418        C  0.14563935  0.22680161  0.01327449    -0.23200
C419        C  0.30591867  0.31483360  0.99430423    -0.18500
C420        C  0.18281268  0.30754644  0.00010118    -0.18500
C421        C  0.19108653  0.18634158  0.99750446    -0.18500
C422        C  0.31340420  0.19398205  0.99796457    -0.18500
H423        H  0.27235505  0.37406521  0.96871955     0.14400
H424        H  0.20637516  0.37107942  0.97471932     0.14400
H425        H  0.28992400  0.13457838  0.96468799     0.14400
H426        H  0.22325861  0.13018576  0.96500111     0.14400
H427        H  0.36660319  0.29181274  0.02689393     0.12700
H428        H  0.37088752  0.22547943  0.02866883     0.12700
H429        H  0.12041034  0.27543303  0.01860225     0.12700
H430        H  0.12516967  0.20958527  0.01849572     0.12700
H431        H  0.24686187  0.27930467  0.01123715     0.25900
H432        H  0.25013296  0.22069484  0.01452383     0.25900
C433        C  0.32590489  0.37226532  0.01049492    -0.09400
C434        C  0.33153886  0.34257694  0.99214947     0.06800
C435        C  0.36183851  0.33968593  0.97296188    -0.03100
C436        C  0.38655894  0.36472286  0.97491734    -0.07600
C437        C  0.38105974  0.39414762  0.99384032     0.05900
C438        C  0.34932460  0.39845384  0.01010189    -0.02600
Br439      Br  0.34122407  0.43151271  0.53806533    -0.02300
H440        H  0.30649954  0.36909434  0.52412155     0.09800
H441        H  0.41002859  0.36144458  0.96094109     0.07900
Br442      Br  0.37067332  0.30283944  0.94274653    -0.02700
C443        C  0.39421840  0.14387322  0.97958643    -0.09400
C444        C  0.38981511  0.11578158  0.00087222     0.06800
C445        C  0.36689029  0.11494012  0.52909611    -0.03100
C446        C  0.34270583  0.14065673  0.52904124    -0.07600
C447        C  0.34091832  0.16815006  0.99935067     0.05900
C448        C  0.36970913  0.16941215  0.97802812    -0.02600
Br449      Br  0.37506837  0.20369428  0.94419129    -0.02300
H450        H  0.41615649  0.14529397  0.96302659     0.09800
H451        H  0.32411882  0.14185006  0.54934326     0.07900
Br452      Br  0.36559329  0.08307736  0.56561788    -0.02700
C453        C  0.14745215  0.34335966  0.52763003    -0.09400
C454        C  0.15474275  0.33246386  0.00092042     0.06800
C455        C  0.14158313  0.34598838  0.97079319    -0.03100
C456        C  0.11771041  0.37180028  0.97235008    -0.07600
C457        C  0.10529718  0.38318954  0.00359392     0.05900
C458        C  0.12131505  0.36703098  0.52981111    -0.02600
Br459      Br  0.10413144  0.37930440  0.57372870    -0.02300
H460        H  0.15859980  0.33375463  0.55066275     0.09800
H461        H  0.10843644  0.38274462  0.94905851     0.07900
Br462      Br  0.15489842  0.32952617  0.92703967    -0.02700
C463        C  0.13230978  0.11370776  0.53187504    -0.09400
C464        C  0.11468296  0.10933104  0.99582170     0.06800
C465        C  0.11367627  0.13689131  0.97330997    -0.03100
C466        C  0.14014400  0.15995449  0.97251292    -0.07600
C467        C  0.16635118  0.15822604  0.99606218     0.05900
C468        C  0.15661880  0.13914471  0.53333376    -0.02600
Br469      Br  0.17712587  0.14882539  0.57600630    -0.02300
H470        H  0.12547713  0.10014246  0.55474150     0.09800
H471        H  0.13924850  0.18065348  0.95470028     0.07900
Br472      Br  0.07620774  0.14591036  0.94434260    -0.02700
C473        C  0.36280462  0.02409273  0.83979126    -0.09400
C474        C  0.34053170  0.99700113  0.83760936     0.06800
C475        C  0.34309733  0.47443775  0.86093125    -0.03100
C476        C  0.36750648  0.47544630  0.88619519    -0.07600
C477        C  0.39043073  0.50210115  0.88761983     0.05900
C478        C  0.38692214  0.02518897  0.86527996    -0.02600
Br479      Br  0.41640173  0.06319958  0.86670734    -0.02300
H480        H  0.36124577  0.04450624  0.82170013     0.09800
H481        H  0.36923771  0.45494083  0.90417735     0.07900
Br482      Br  0.31525006  0.43529815  0.85768704    -0.02700
C483        C  0.10979497  0.01545061  0.85845349    -0.09400
C484        C  0.11505256  0.49330521  0.88958152     0.06800
C485        C  0.14534365  0.47489521  0.89357101    -0.03100
C486        C  0.16990612  0.47538559  0.86785773    -0.07600
C487        C  0.16537788  0.99958320  0.83752149     0.05900
C488        C  0.13600155  0.01941012  0.83491127    -0.02600
Br489      Br  0.13148397  0.05408875  0.80139161    -0.02300
H490        H  0.08683947  0.02969224  0.85521946     0.09800
H491        H  0.19259076  0.46040285  0.87067292     0.07900
Br492      Br  0.15451822  0.44763102  0.93258967    -0.02700
C493        C  0.11123719  0.01784994  0.63888040    -0.09400
C494        C  0.11667066  0.99803309  0.60985381     0.06800
C495        C  0.14589203  0.47227865  0.60827778    -0.03100
C496        C  0.16945444  0.47084033  0.63445566    -0.07600
C497        C  0.16596711  0.00172252  0.66160637     0.05900
C498        C  0.13576792  0.02052084  0.66406356    -0.02600
Br499      Br  0.12771815  0.05220988  0.69984783    -0.02300
H500        H  0.08814593  0.03231658  0.64151343     0.09800
H501        H  0.19228649  0.45613724  0.63090722     0.07900
Br502      Br  0.15811900  0.44935156  0.56717112    -0.02700
C503        C  0.37174872  0.47362483  0.61667648    -0.09400
C504        C  0.39164975  0.00511457  0.61335658     0.06800
C505        C  0.39392144  0.02601524  0.64197601    -0.03100
C506        C  0.36793692  0.02574532  0.66610697    -0.07600
C507        C  0.34039144  0.00395793  0.66272988     0.05900
C508        C  0.34646210  0.47253842  0.64143301    -0.02600
Br509      Br  0.32211243  0.43145538  0.64763650    -0.02300
H510        H  0.37666039  0.45167934  0.60123163     0.09800
H511        H  0.36938882  0.04220509  0.68786215     0.07900
Br512      Br  0.43058675  0.05667640  0.64843858    -0.02700
C513        C  0.02466391  0.14484684  0.84333259    -0.09400
C514        C  0.99525089  0.16428462  0.84031535     0.06800
C515        C  0.46758519  0.15791789  0.86210426    -0.03100
C516        C  0.46963417  0.13216716  0.88617686    -0.07600
C517        C  0.99870389  0.11208743  0.88839457     0.05900
C518        C  0.02651570  0.11891412  0.86713289    -0.02600
Br519      Br  0.06814501  0.09489213  0.87108694    -0.02300
H520        H  0.04624217  0.14990820  0.82704946     0.09800
H521        H  0.44829570  0.12746922  0.90290467     0.07900
Br522      Br  0.42635094  0.18302039  0.85921136    -0.02700
C523        C  0.46539064  0.37142898  0.88236116    -0.09400
C524        C  0.99525966  0.38950040  0.88763142     0.06800
C525        C  0.02383373  0.38285018  0.86719064    -0.03100
C526        C  0.02239195  0.35815907  0.84207288    -0.07600
C527        C  0.99265281  0.33994168  0.83688806     0.05900
C528        C  0.46384758  0.34697319  0.85694727    -0.02600
Br529      Br  0.42198846  0.32413270  0.84980177    -0.02300
H530        H  0.44318041  0.37662975  0.89776091     0.09800
H531        H  0.04464702  0.35281596  0.82680345     0.07900
Br532      Br  0.06576926  0.40578903  0.87391665    -0.02700
C533        C  0.47271989  0.33816916  0.63936272    -0.09400
C534        C  0.00037283  0.33583506  0.66123085     0.06800
C535        C  0.02664871  0.35943205  0.65846003    -0.03100
C536        C  0.02479275  0.38510560  0.63436148    -0.07600
C537        C  0.99722473  0.38743014  0.61246882     0.05900
C538        C  0.47093625  0.36377699  0.61511394    -0.02600
Br539      Br  0.43109065  0.36685611  0.58794027    -0.02300
H540        H  0.45213500  0.32047073  0.64174432     0.09800
H541        H  0.04524883  0.40299905  0.63229380     0.05800
Br542      Br  0.06566285  0.35729698  0.68675255    -0.02700
C543        C  0.48167446  0.16455910  0.63599450    -0.09400
C544        C  0.00362765  0.16146540  0.66360902     0.06800
C545        C  0.02582297  0.13365018  0.66454766    -0.03100
C546        C  0.02438133  0.10884604  0.63936956    -0.07600
C547        C  0.00235647  0.11187055  0.61181065     0.05900
C548        C  0.48133436  0.14062213  0.60997700    -0.02600
Br549      Br  0.45075556  0.14841938  0.57332692    -0.02300
H550        H  0.46474140  0.18592538  0.63460655     0.09800
H551        H  0.04141864  0.08756679  0.64074954     0.07900
Br552      Br  0.06008682  0.12938501  0.69832629    -0.02700
N553        N  0.99428163  0.74813099  0.19844932    -0.36800
N554        N  0.99325152  0.69756498  0.25094754    -0.57400
N555        N  0.98759506  0.74964548  0.30201227    -0.36800
N556        N  0.99061441  0.80005971  0.24926540    -0.57400
C557        C  0.00462755  0.72075153  0.18103144     0.26800
C558        C  0.00300040  0.77533521  0.17989339     0.26800
C559        C  0.99642815  0.72270526  0.32087596     0.26800
C560        C  0.99495263  0.77742621  0.32012067     0.26800
C561        C  0.98783012  0.67817837  0.22353874     0.35400
C562        C  0.98451891  0.67899297  0.27824806     0.35400
C563        C  0.98491486  0.81860145  0.22121090     0.35400
C564        C  0.98208012  0.81958018  0.27596309     0.35400
C565        C  0.02037133  0.73064460  0.15109644    -0.22100
C566        C  0.01925599  0.76520789  0.15034215    -0.22100
C567        C  0.00977619  0.73347974  0.35133910    -0.22100
C568        C  0.00861033  0.76808471  0.35095430    -0.22100
C569        C  0.97526927  0.64719709  0.23341127    -0.23200
C570        C  0.97333196  0.64765275  0.26816634    -0.23200
C571        C  0.97256269  0.84998467  0.23010300    -0.23200
C572        C  0.97084782  0.85063467  0.26488175    -0.23200
C573        C  0.99710277  0.68728881  0.19015829    -0.18500
C574        C  0.99434324  0.80875628  0.18809511    -0.18500
C575        C  0.98757642  0.81073994  0.31007420    -0.18500
C576        C  0.99020299  0.68887710  0.31204185    -0.18500
H577        H  0.03088824  0.71460907  0.13152337     0.14400
H578        H  0.02880488  0.78104398  0.13013078     0.14400
H579        H  0.01878365  0.71802534  0.37195881     0.14400
H580        H  0.01663788  0.78447762  0.37114364     0.14400
H581        H  0.96897712  0.62619045  0.21735120     0.12700
H582        H  0.96523194  0.62707414  0.28419296     0.12700
H583        H  0.96632622  0.87054212  0.21331601     0.12700
H584        H  0.96294357  0.87175569  0.28027208     0.12700
H585        H  0.97825110  0.74811230  0.21950398     0.25900
H586        H  0.97367717  0.74903051  0.27979023     0.25900
O587        O  0.99841989  0.59582039  0.05502425    -0.86700
O588        O  0.99697011  0.90446915  0.05552698    -0.86900
O589        O  0.44481123  0.50113066  0.09646915    -0.88500
O590        O  0.05431176  0.50055431  0.09744662    -0.87300
O591        O  0.09830677  0.99978845  0.05197979    -0.86900
O592        O  0.40654455  0.00196000  0.05861070    -0.88300
O593        O  0.00228321  0.94460396  0.09686249    -0.86700
O594        O  0.99721416  0.55499377  0.09613125    -0.86300
Zr595      Zr  0.00216411  0.00004410  0.06908224     2.84300
O596        O  0.03404033  0.96473621  0.03395216    -1.08300
O597        O  0.46698675  0.53520179  0.03451489    -1.09000
C598        C  0.99674652  0.58585936  0.08608369     1.06400
C599        C  0.99910983  0.91385333  0.08671039     1.06300
C600        C  0.41404821  0.50151487  0.08620218     1.09300
C601        C  0.08548552  0.49853929  0.08748925     1.07100
H602        H  0.45172648  0.95384289  0.05037457     0.32700
O603        O  0.46592480  0.96745445  0.03582462    -1.29300
H604        H  0.04923172  0.54709240  0.04938973     0.32300
O605        O  0.03510495  0.53345334  0.03522605    -1.30900
O606        O  0.99227667  0.90464438  0.44255404    -0.86700
O607        O  0.00290837  0.59434866  0.44440215    -0.88200
O608        O  0.40217588  0.94776561  0.50094450    -0.86800
O609        O  0.09378915  0.93834081  0.50037361    -0.86800
O610        O  0.10094016  0.54791450  0.50091626    -0.86500
O611        O  0.40760023  0.55630211  0.49938795    -0.86300
O612        O  0.44592464  0.00139555  0.40337296    -0.86700
O613        O  0.05640660  0.99876070  0.40276812    -0.86200
O614        O  0.40527659  0.99953442  0.44528190    -0.87200
O615        O  0.09760733  0.99464604  0.44324483    -0.86400
O616        O  0.44154389  0.90536918  0.49846092    -0.86800
O617        O  0.44992760  0.59558139  0.49929436    -0.86500
O618        O  0.06161218  0.59043815  0.49745415    -0.86200
O619        O  0.05092342  0.89964725  0.49796923    -0.86600
O620        O  0.99521190  0.94595713  0.40195505    -0.86900
O621        O  0.00294980  0.55356968  0.40341990    -0.88200
Zr622      Zr  0.99793955  0.93079882  0.49839810     2.83100
Zr623      Zr  0.00481562  0.56636315  0.49921793     2.83500
Zr624      Zr  0.43323215  0.00084305  0.50023654     2.84100
Zr625      Zr  0.06953030  0.99530430  0.49825732     2.83400
Zr626      Zr  0.00096179  0.99950291  0.43070227     2.84200
O627        O  0.03902666  0.53104936  0.46586875    -1.08800
O628        O  0.46570641  0.96656734  0.46495387    -1.08300
C629        C  0.99225597  0.91510369  0.41149875     1.06400
C630        C  0.00211804  0.58445469  0.41328531     1.09000
C631        C  0.41080786  0.91646709  0.49954766     1.06500
C632        C  0.08232137  0.90793614  0.49963157     1.06900
C633        C  0.09223206  0.57912900  0.49897906     1.06500
C634        C  0.41844907  0.58681354  0.49965030     1.06000
C635        C  0.41492635  0.00032373  0.41389067     1.06500
C636        C  0.08748402  0.99692351  0.41237653     1.06000
H637        H  0.45638431  0.54794462  0.45088079     0.32700
O638        O  0.47005524  0.53371879  0.46505154    -1.29900
H639        H  0.04708300  0.94867656  0.44934920     0.32700
O640        O  0.03390683  0.96317186  0.46378932    -1.31300
N641        N  0.25421210  0.49281360  0.30153021    -0.36800
N642        N  0.20054373  0.49919009  0.25083989    -0.57400
N643        N  0.24984727  0.49604219  0.19825662    -0.36800
N644        N  0.30344981  0.49190405  0.24894657    -0.57400
C645        C  0.22773101  0.50332864  0.32050254     0.26800
C646        C  0.28243113  0.49873348  0.31959622     0.26800
C647        C  0.22252747  0.50641433  0.18076699     0.26800
C648        C  0.27733185  0.50435512  0.17974355     0.26800
C649        C  0.18230372  0.49269834  0.27902293     0.35400
C650        C  0.18002849  0.49319109  0.22443659     0.35400
C651        C  0.32389227  0.48416391  0.27502850     0.35400
C652        C  0.32143618  0.48619522  0.22041640     0.35400
C653        C  0.23908532  0.51576088  0.35112777    -0.22100
C654        C  0.27370554  0.51293007  0.35052064    -0.22100
C655        C  0.23273559  0.52143702  0.15069837    -0.22100
C656        C  0.26747180  0.52015111  0.15003757    -0.22100
C657        C  0.15000512  0.48254166  0.27060562    -0.23200
C658        C  0.14866431  0.48254949  0.23585321    -0.23200
C659        C  0.35501178  0.47324810  0.26305385    -0.23200
C660        C  0.35346498  0.47451127  0.22832624    -0.23200
C661        C  0.19354623  0.49899853  0.31208474    -0.18500
C662        C  0.31563982  0.49030523  0.30927427    -0.18500
C663        C  0.31076174  0.49539661  0.18775566    -0.18500
C664        C  0.18873505  0.50042332  0.19054100    -0.18500
H665        H  0.22393924  0.52547966  0.37190467     0.14400
H666        H  0.29049176  0.52024720  0.37064743     0.14400
H667        H  0.21681343  0.53189672  0.13118113     0.14400
H668        H  0.28361246  0.52928998  0.12976301     0.14400
H669        H  0.12942458  0.47635215  0.28772686     0.12700
H670        H  0.12686990  0.47639977  0.22079669     0.12700
H671        H  0.37678102  0.46605233  0.27777643     0.12700
H672        H  0.37391919  0.46857264  0.21092152     0.12700
H673        H  0.25257837  0.47878572  0.27939659     0.25900
H674        H  0.24975438  0.48042192  0.21942033     0.25900
N675        N  0.24721784  0.79939063  0.49936707    -0.36800
N676        N  0.30266114  0.75135633  0.49877894    -0.57400
N677        N  0.25382231  0.69651523  0.50224114    -0.36800
N678        N  0.19851256  0.74441499  0.49933815    -0.57400
C679        C  0.27346751  0.82041939  0.49342683     0.26800
C680        C  0.21837662  0.81668207  0.49341464     0.26800
C681        C  0.28260001  0.67947444  0.49501608     0.26800
C682        C  0.22772734  0.67575647  0.49560663     0.26800
C683        C  0.32046883  0.77982757  0.50370732     0.35400
C684        C  0.32384050  0.72542565  0.50512403     0.35400
C685        C  0.17676010  0.77038440  0.50314518     0.35400
C686        C  0.18044012  0.71613709  0.50464216     0.35400
C687        C  0.26111028  0.85161581  0.48398377    -0.22100
C688        C  0.22642564  0.84928204  0.48400043    -0.22100
C689        C  0.27464251  0.64749523  0.48380519    -0.22100
C690        C  0.24004308  0.64510303  0.48436155    -0.22100
C691        C  0.35323946  0.77191308  0.51289685    -0.23200
C692        C  0.35531363  0.73747928  0.51399093    -0.23200
C693        C  0.14462299  0.75848936  0.51039667    -0.23200
C694        C  0.14697740  0.72413244  0.51143195    -0.23200
C695        C  0.30813863  0.81282228  0.49824141    -0.18500
C696        C  0.18497802  0.80459839  0.49828523    -0.18500
C697        C  0.19314311  0.68315899  0.50091245    -0.18500
C698        C  0.31586036  0.69110787  0.50044332    -0.18500
H699        H  0.27555479  0.87391330  0.47810122     0.14400
H700        H  0.20911111  0.86949240  0.47812790     0.14400
H701        H  0.29197764  0.62774550  0.47629116     0.14400
H702        H  0.22560642  0.62322425  0.47736125     0.14400
H703        H  0.37359263  0.78913755  0.51810793     0.12700
H704        H  0.37760222  0.72297236  0.52006943     0.12700
H705        H  0.12176120  0.77301481  0.51419887     0.12700
H706        H  0.12631644  0.70699081  0.51614684     0.12700
H707        H  0.24872042  0.77584691  0.51042869     0.25900
H708        H  0.25223452  0.71940260  0.51470495     0.25900
C709        C  0.34012773  0.85797360  0.52778202    -0.09400
C710        C  0.33303844  0.84092985  0.49763909     0.06800
C711        C  0.35091542  0.84965363  0.46784561    -0.03100
C712        C  0.37584398  0.87463074  0.46871494    -0.07600
C713        C  0.38337333  0.89124681  0.49906812     0.05900
C714        C  0.36513872  0.88276486  0.52869034    -0.02600
Br715      Br  0.34449721  0.93487256  0.05142078    -0.02300
H716        H  0.30988714  0.87131339  0.04459336     0.09800
H717        H  0.38958421  0.88090260  0.44569844     0.07900
Br718      Br  0.34228404  0.82765690  0.42566958    -0.02700
C719        C  0.39320417  0.63900377  0.47549467    -0.09400
C720        C  0.39264991  0.61382191  0.50045193     0.06800
C721        C  0.36403182  0.61480431  0.02893224    -0.03100
C722        C  0.33954731  0.64026039  0.02922659    -0.07600
C723        C  0.34354845  0.66559748  0.50077953     0.05900
C724        C  0.36832264  0.66415955  0.47494498    -0.02600
Br725      Br  0.36711804  0.69424758  0.43701472    -0.02300
H726        H  0.41216791  0.63827080  0.45556193     0.09800
H727        H  0.31964414  0.63979530  0.04826565     0.07900
Br728      Br  0.36037090  0.58023415  0.06267952    -0.02700
C729        C  0.14146361  0.84526140  0.03764960    -0.09400
C730        C  0.15694346  0.82955103  0.49848857     0.06800
C731        C  0.14148955  0.84004784  0.46828470    -0.03100
C732        C  0.11708632  0.86556545  0.46916008    -0.07600
C733        C  0.10715860  0.88028541  0.49995763     0.05900
C734        C  0.11604632  0.86974407  0.03620827    -0.02600
Br735      Br  0.09259641  0.88180890  0.07720831    -0.02300
H736        H  0.14824007  0.83456471  0.06190782     0.09800
H737        H  0.10571260  0.87387088  0.44575232     0.07900
Br738      Br  0.15264834  0.81980704  0.42555833    -0.02700
C739        C  0.14461871  0.60485941  0.02113561    -0.09400
C740        C  0.11946281  0.60414017  0.49865991     0.06800
C741        C  0.12623014  0.62353942  0.46957459    -0.03100
C742        C  0.15068148  0.64874664  0.47057254    -0.07600
C743        C  0.16857672  0.65503860  0.50036226     0.05900
C744        C  0.16928088  0.63002749  0.02314134    -0.02600
Br745      Br  0.20594044  0.62312596  0.05395445    -0.02300
H746        H  0.14694518  0.58273445  0.03694157     0.09800
H747        H  0.15557453  0.66373847  0.44814685     0.07900
Br748      Br  0.10311577  0.61590199  0.42781771    -0.02700
C749        C  0.36774868  0.51661713  0.33223800    -0.09400
C750        C  0.34315530  0.49141557  0.33474082     0.06800
C751        C  0.33777320  0.97245234  0.36583835    -0.03100
C752        C  0.36329129  0.97442571  0.39008901    -0.07600
C753        C  0.38826893  0.99932134  0.38796690     0.05900
C754        C  0.39282547  0.51978717  0.35680147    -0.02600
Br755      Br  0.42412943  0.55618915  0.35208126    -0.02300
H756        H  0.36701866  0.53429413  0.31136495     0.09800
H757        H  0.36376849  0.95630302  0.41058515     0.07900
Br758      Br  0.30444520  0.93792158  0.37066206    -0.02700
C759        C  0.12185539  0.52597093  0.36969131    -0.09400
C760        C  0.11367782  0.99947079  0.38598802     0.06800
C761        C  0.13577043  0.97275392  0.37830067    -0.03100
C762        C  0.16042257  0.97682327  0.35311282    -0.07600
C763        C  0.16833592  0.49974020  0.33964616     0.05900
C764        C  0.14630093  0.52711949  0.34404477    -0.02600
Br765      Br  0.14902856  0.56641669  0.31596735    -0.02300
H766        H  0.10597205  0.54752901  0.37414973     0.09800
H767        H  0.17722043  0.95612388  0.34700942     0.07900
Br768      Br  0.13333913  0.93036159  0.40109144    -0.02700
C769        C  0.10920568  0.52139700  0.14089453    -0.09400
C770        C  0.11194267  0.49871816  0.11374829     0.06800
C771        C  0.14493823  0.98324873  0.10779553    -0.03100
C772        C  0.16920394  0.98568443  0.13308471    -0.07600
C773        C  0.16208278  0.50086980  0.16419305     0.05900
C774        C  0.13438899  0.52320974  0.16551091    -0.02600
Br775      Br  0.13097230  0.55793076  0.19905806    -0.02300
H776        H  0.08798854  0.53859916  0.14231142     0.09800
H777        H  0.19002606  0.96797472  0.13326578     0.07900
Br778      Br  0.15164877  0.94933112  0.07395711    -0.02700
C779        C  0.37696837  0.96872689  0.12371741    -0.09400
C780        C  0.38775394  0.50059782  0.11210018     0.06800
C781        C  0.38514636  0.52572560  0.13692204    -0.03100
C782        C  0.35931413  0.52404880  0.16102258    -0.07600
C783        C  0.33648819  0.49729916  0.16084872     0.05900
C784        C  0.35102838  0.96656039  0.14773711    -0.02600
Br785      Br  0.32931878  0.92414185  0.15488881    -0.02300
H786        H  0.38525788  0.94632159  0.11052172     0.09800
H787        H  0.35717117  0.54338507  0.18019751     0.07900
Br788      Br  0.41585067  0.56281897  0.13867203    -0.02700
C789        C  0.01605603  0.63621509  0.33374974    -0.09400
C790        C  0.99257701  0.66225386  0.33843503     0.06800
C791        C  0.47153753  0.66192758  0.36745688    -0.03100
C792        C  0.47546378  0.63672115  0.39186500    -0.07600
C793        C  0.99902453  0.61068634  0.38707022     0.05900
C794        C  0.01867235  0.61013120  0.35714783    -0.02600
Br795      Br  0.04968099  0.57481840  0.34657071    -0.02300
H796        H  0.03213054  0.63592579  0.31136497     0.09800
H797        H  0.45940845  0.63693974  0.41423584     0.07900
Br798      Br  0.43605147  0.69420359  0.37395341    -0.02700
C799        C  0.46237828  0.86754511  0.38371218    -0.09400
C800        C  0.98995155  0.88959809  0.38456846     0.06800
C801        C  0.01556152  0.88671859  0.35970764    -0.03100
C802        C  0.01468041  0.86059946  0.33613930    -0.07600
C803        C  0.98769563  0.83794476  0.33584859     0.05900
C804        C  0.46072756  0.84236762  0.35895952    -0.02600
Br805      Br  0.42047540  0.81597709  0.35596379    -0.02300
H806        H  0.44184354  0.87034916  0.40184969     0.09800
H807        H  0.03502342  0.85805509  0.31775314     0.07900
Br808      Br  0.05265488  0.91746202  0.35730641    -0.02700
C809        C  0.47130390  0.83699468  0.13677814    -0.09400
C810        C  0.99653279  0.83494329  0.16132035     0.06800
C811        C  0.02286258  0.85854747  0.16096192    -0.03100
C812        C  0.02283447  0.88474449  0.13723103    -0.07600
C813        C  0.99756368  0.88695789  0.11261766     0.05900
C814        C  0.47184797  0.86244787  0.11227130    -0.02600
Br815      Br  0.43601624  0.86327136  0.07984983    -0.02300
H816        H  0.45099065  0.81886014  0.13687245     0.09800
H817        H  0.04312522  0.90288203  0.13739615     0.05800
Br818      Br  0.05997397  0.85478864  0.19161243    -0.02700
C819        C  0.47593854  0.66484220  0.13559365    -0.09400
C820        C  0.99759615  0.66119142  0.16332431     0.06800
C821        C  0.01875968  0.63274806  0.16521109    -0.03100
C822        C  0.01702536  0.60803247  0.14034704    -0.07600
C823        C  0.99569264  0.61180874  0.11247842     0.05900
C824        C  0.47515042  0.64072850  0.10997750    -0.02600
Br825      Br  0.44470680  0.64824683  0.07315086    -0.02300
H826        H  0.45958069  0.68662615  0.13391230     0.09800
H827        H  0.03343051  0.58628639  0.14213069     0.07900
Br828      Br  0.05191551  0.62722228  0.19990881    -0.02700
N829        N  0.00177255  0.74887881  0.69882342    -0.36800
N830        N  0.00249799  0.69759552  0.75035974    -0.57400
N831        N  0.99252689  0.74911565  0.80211283    -0.36800
N832        N  0.99416279  0.80029568  0.75044622    -0.57400
C833        C  0.01260094  0.72201445  0.68072558     0.26800
C834        C  0.01045264  0.77674306  0.68114466     0.26800
C835        C  0.00264470  0.72261696  0.82091539     0.26800
C836        C  0.99753541  0.77703812  0.82085728     0.26800
C837        C  0.99927476  0.67775403  0.72284106     0.35400
C838        C  0.99620712  0.67803934  0.77765118     0.35400
C839        C  0.98875125  0.81879586  0.72230908     0.35400
C840        C  0.98278175  0.81867997  0.77697442     0.35400
C841        C  0.02840387  0.73283650  0.65122619    -0.22100
C842        C  0.02728361  0.76739946  0.65159265    -0.22100
C843        C  0.01405559  0.73371274  0.85202491    -0.22100
C844        C  0.01118638  0.76812810  0.85185045    -0.22100
C845        C  0.99088731  0.64541138  0.73273088    -0.23200
C846        C  0.98917824  0.64554582  0.76753718    -0.23200
C847        C  0.97329540  0.84892641  0.73092040    -0.23200
C848        C  0.96963966  0.84890298  0.76562384    -0.23200
C849        C  0.00657681  0.68804693  0.68924935    -0.18500
C850        C  0.00077425  0.81003770  0.68961156    -0.18500
C851        C  0.98811170  0.80999248  0.81127799    -0.18500
C852        C  0.99954417  0.68860341  0.81153946    -0.18500
H853        H  0.03938380  0.71740213  0.63141208     0.14400
H854        H  0.03711548  0.78375845  0.63195856     0.14400
H855        H  0.02331170  0.71856107  0.87276119     0.14400
H856        H  0.01787067  0.78462198  0.87245298     0.14400
H857        H  0.98716564  0.62381002  0.71663945     0.12700
H858        H  0.98381421  0.62411920  0.78357761     0.12700
H859        H  0.96634621  0.86921622  0.71408621     0.12700
H860        H  0.95936239  0.86915513  0.78082716     0.12700
H861        H  0.98561463  0.74806552  0.71975377     0.25900
H862        H  0.97938868  0.74782484  0.77944545     0.25900
O863        O  0.00457241  0.59529003  0.55343776    -0.86700
O864        O  0.99874838  0.90319133  0.55348166    -0.86900
O865        O  0.44834441  0.50225379  0.59637691    -0.88500
O866        O  0.05773432  0.49551524  0.59616231    -0.87300
O867        O  0.09896608  0.99522025  0.55229142    -0.86900
O868        O  0.40775021  0.00312404  0.55623351    -0.88300
O869        O  0.00266024  0.94333979  0.59488958    -0.86700
O870        O  0.00488977  0.55492684  0.59506999    -0.86300
Zr871      Zr  0.00283934  0.99862545  0.56769530     2.84300
O872        O  0.03409474  0.96273669  0.53244015    -1.08300
O873        O  0.46941966  0.53363275  0.53343402    -1.09000
C874        C  0.00481798  0.58582550  0.58472418     1.06400
C875        C  0.00066492  0.91254021  0.58471427     1.06300
C876        C  0.41755647  0.50234076  0.58621201     1.09300
C877        C  0.08889722  0.49260751  0.58622147     1.07100
H878        H  0.45193845  0.95240311  0.54881397     0.32700
O879        O  0.46637087  0.96587462  0.53433869    -1.29300
H880        H  0.05253655  0.54493149  0.54790585     0.32300
O881        O  0.03798390  0.53155940  0.53391346    -1.30900
O882        O  0.99521720  0.90403753  0.94556446    -0.86700
O883        O  0.00355427  0.59633281  0.94592571    -0.88200
O884        O  0.40168398  0.94924609  0.00353968    -0.86800
O885        O  0.09362617  0.94200408  0.00151811    -0.86800
O886        O  0.09828337  0.55146403  0.00102020    -0.86500
O887        O  0.40581866  0.55813476  0.00300451    -0.86300
O888        O  0.44532279  0.99952467  0.90538106    -0.86700
O889        O  0.05567851  0.99680412  0.90359632    -0.86200
O890        O  0.40426937  0.99982912  0.94707402    -0.87200
O891        O  0.09651760  0.99554051  0.94434694    -0.86400
O892        O  0.44137843  0.90722784  0.00195180    -0.86800
O893        O  0.44778442  0.59769281  0.00108317    -0.86500
O894        O  0.05845469  0.59349603  0.00058047    -0.86200
O895        O  0.05140441  0.90250892  0.00244603    -0.86600
O896        O  0.99722326  0.94475748  0.90440988    -0.86900
O897        O  0.00560158  0.55566150  0.90470440    -0.88200
Zr898      Zr  0.99779755  0.93223171  0.00060070     2.83100
Zr899      Zr  0.00222943  0.56813348  0.00044723     2.83500
Zr900      Zr  0.43213189  0.00218919  0.00206533     2.84100
Zr901      Zr  0.06823669  0.99807825  0.99895230     2.83400
Zr902      Zr  0.00028411  0.99960173  0.93192857     2.84200
O903        O  0.03633938  0.53321616  0.96668026    -1.08800
O904        O  0.46489097  0.96735730  0.96696264    -1.08300
C905        C  0.99555336  0.91384681  0.91428045     1.06400
C906        C  0.00511750  0.58652216  0.91483921     1.09000
C907        C  0.41054028  0.91805542  0.00331327     1.06500
C908        C  0.08263873  0.91149894  0.00281260     1.06900
C909        C  0.08934080  0.58277623  0.00044257     1.06500
C910        C  0.41644530  0.58870185  0.00294589     1.06000
C911        C  0.41434654  0.99942817  0.91579787     1.06500
C912        C  0.08679340  0.99531818  0.91331191     1.06000
H913        H  0.45406037  0.55032256  0.95159522     0.32700
O914        O  0.46749138  0.53586294  0.96578040    -1.29900
H915        H  0.04681146  0.94978502  0.95161401     0.32700
O916        O  0.03333030  0.96443187  0.96562982    -1.31300
N917        N  0.25369995  0.49639838  0.80204580    -0.36800
N918        N  0.20212058  0.49150822  0.75100602    -0.57400
N919        N  0.25347300  0.49263460  0.69878077    -0.36800
N920        N  0.30522782  0.49999920  0.74999905    -0.57400
C921        C  0.22571100  0.50412389  0.82038618     0.26800
C922        C  0.28063394  0.50648836  0.82006397     0.26800
C923        C  0.22525802  0.49865642  0.68061903     0.26800
C924        C  0.28007351  0.50341767  0.68003851     0.26800
C925        C  0.18389968  0.48402971  0.77904209     0.35400
C926        C  0.18404781  0.48088048  0.72431705     0.35400
C927        C  0.32517120  0.49534515  0.77711094     0.35400
C928        C  0.32500154  0.49495584  0.72247498     0.35400
C929        C  0.23502491  0.51954631  0.85035767    -0.22100
C930        C  0.26978086  0.52075835  0.85027394    -0.22100
C931        C  0.23414956  0.51349460  0.64998267    -0.22100
C932        C  0.26880608  0.51619248  0.64949473    -0.22100
C933        C  0.15423639  0.46802335  0.77023064    -0.23200
C934        C  0.15442927  0.46584026  0.73544124    -0.23200
C935        C  0.35782220  0.48749174  0.76680854    -0.23200
C936        C  0.35774244  0.48735754  0.73204584    -0.23200
C937        C  0.19241547  0.49473571  0.81192527    -0.18500
C938        C  0.31468963  0.50077000  0.81084590    -0.18500
C939        C  0.31431786  0.49974538  0.68894157    -0.18500
C940        C  0.19207202  0.48917101  0.69040133    -0.18500
H941        H  0.21855437  0.52832928  0.87054021     0.14400
H942        H  0.28531751  0.53071242  0.87026682     0.14400
H943        H  0.21748362  0.52133483  0.62989229     0.14400
H944        H  0.28400307  0.52633862  0.62898590     0.14400
H945        H  0.13416990  0.45968987  0.78701906     0.12700
H946        H  0.13444156  0.45573414  0.72004640     0.12700
H947        H  0.37952186  0.48291923  0.78263301     0.12700
H948        H  0.37935556  0.48262805  0.71570976     0.12700
H949        H  0.25465703  0.48122277  0.78063147     0.25900
H950        H  0.25490130  0.47848248  0.72091627     0.25900
N951        N  0.24765438  0.80209754  0.01191019    -0.36800
N952        N  0.30150479  0.75238479  0.00844240    -0.57400
N953        N  0.25182886  0.69958437  0.00712072    -0.36800
N954        N  0.19792071  0.74874375  0.00904028    -0.57400
C955        C  0.27453905  0.82165943  0.00399065     0.26800
C956        C  0.21940397  0.81997694  0.00491798     0.26800
C957        C  0.28012695  0.68301447  0.99728062     0.26800
C958        C  0.22523561  0.68120526  0.99678239     0.26800
C959        C  0.31958844  0.77995445  0.01611510     0.35400
C960        C  0.32174053  0.72563097  0.01419017     0.35400
C961        C  0.17712300  0.77495966  0.01569355     0.35400
C962        C  0.17956176  0.72050123  0.01365749     0.35400
C963        C  0.26317375  0.85238919  0.99202951    -0.22100
C964        C  0.22851606  0.85157373  0.99323006    -0.22100
C965        C  0.27149439  0.65401415  0.98016599    -0.22100
C966        C  0.23677102  0.65301625  0.97957665    -0.22100
C967        C  0.35139508  0.77062810  0.02725144    -0.23200
C968        C  0.35281815  0.73615619  0.02583073    -0.23200
C969        C  0.14527594  0.76331936  0.02454199    -0.23200
C970        C  0.14693917  0.72884661  0.02367573    -0.23200
C971        C  0.30895372  0.81322111  0.00929290    -0.18500
C972        C  0.18569523  0.80902286  0.01022957    -0.18500
C973        C  0.19110949  0.68772082  0.00542554    -0.18500
C974        C  0.31334393  0.69229295  0.00571931    -0.18500
H975        H  0.27820489  0.87349223  0.98363114     0.14400
H976        H  0.21205540  0.87208729  0.98619166     0.14400
H977        H  0.28846031  0.63531902  0.96962197     0.14400
H978        H  0.22171108  0.63328325  0.96862277     0.14400
H979        H  0.37181668  0.78699762  0.03450897     0.12700
H980        H  0.37449300  0.72069781  0.03178200     0.12700
H981        H  0.12293634  0.77801590  0.03031818     0.12700
H982        H  0.12616755  0.71197125  0.02881050     0.12700
H983        H  0.24848566  0.77921923  0.02457511     0.25900
H984        H  0.25077602  0.71974295  0.02385795     0.25900
C985        C  0.33131202  0.86911387  0.02743425    -0.09400
C986        C  0.33490593  0.84040590  0.00707010     0.06800
C987        C  0.36254633  0.83859200  0.98422634    -0.03100
C988        C  0.38701709  0.86380249  0.98397597    -0.07600
C989        C  0.38348539  0.89243093  0.00437604     0.05900
C990        C  0.35445467  0.89551952  0.02529485    -0.02600
Br991      Br  0.37518003  0.90253091  0.57149135    -0.02300
H992        H  0.32677302  0.85128726  0.55090023     0.09800
H993        H  0.40844144  0.86153919  0.96682736     0.07900
Br994      Br  0.36712870  0.80359362  0.95110991    -0.02700
C995        C  0.39115931  0.64129386  0.98045263    -0.09400
C996        C  0.39047979  0.61544638  0.00463522     0.06800
C997        C  0.36668090  0.61432534  0.52520812    -0.03100
C998        C  0.34314568  0.64056829  0.52580651    -0.07600
C999        C  0.34024939  0.66604825  0.00497916     0.05900
C1000       C  0.36581286  0.66589094  0.97990497    -0.02600
Br1001     Br  0.36529032  0.69689106  0.94272982    -0.02300
H1002       H  0.41066034  0.64150701  0.96099667     0.09800
H1003       H  0.32360544  0.64083355  0.54522648     0.07900
Br1004     Br  0.36146955  0.57957540  0.55841176    -0.02700
C1005       C  0.14582803  0.84308178  0.52945717    -0.09400
C1006       C  0.15797226  0.83431195  0.00796836     0.06800
C1007       C  0.14822317  0.84789108  0.97648128    -0.03100
C1008       C  0.12368199  0.87315450  0.97526709    -0.07600
C1009       C  0.10789007  0.88457854  0.00496378     0.05900
C1010       C  0.12058844  0.86779371  0.53042663    -0.02600
Br1011     Br  0.10389530  0.88219647  0.57383439    -0.02300
H1012       H  0.15667665  0.83418073  0.55291856     0.09800
H1013       H  0.11660521  0.88365489  0.95101850     0.07900
Br1014     Br  0.16768637  0.83274507  0.93446572    -0.02700
C1015       C  0.13800171  0.60974927  0.52821877    -0.09400
C1016       C  0.11646974  0.60857626  0.99998937     0.06800
C1017       C  0.11431125  0.63756100  0.97943174    -0.03100
C1018       C  0.13907706  0.66240394  0.98112415    -0.07600
C1019       C  0.16622633  0.65958126  0.00346254     0.05900
C1020       C  0.16230081  0.63518738  0.52930797    -0.02600
Br1021     Br  0.18521456  0.64307330  0.57111734    -0.02300
H1022       H  0.13287269  0.59496730  0.55074921     0.09800
H1023       H  0.13697814  0.68435184  0.96503027     0.07900
Br1024     Br  0.07893788  0.64438189  0.94739897    -0.02700
C1025       C  0.36346753  0.52777769  0.83912925    -0.09400
C1026       C  0.34055083  0.50109269  0.83764240     0.06800
C1027       C  0.34281150  0.97043411  0.86100777    -0.03100
C1028       C  0.36638233  0.97192894  0.88712636    -0.07600
C1029       C  0.38851452  0.99920388  0.88943684     0.05900
C1030       C  0.38865891  0.52817467  0.86363212    -0.02600
Br1031     Br  0.41958048  0.56510274  0.86395468    -0.02300
H1032       H  0.36189565  0.54812731  0.82097317     0.09800
H1033       H  0.36807848  0.95139613  0.90506906     0.07900
Br1034     Br  0.31533939  0.93113905  0.85694921    -0.02700
C1035       C  0.11061393  0.51226540  0.85999567    -0.09400
C1036       C  0.11354055  0.99473004  0.88689607     0.06800
C1037       C  0.14377205  0.97610100  0.89045249    -0.03100
C1038       C  0.16879627  0.97787827  0.86529683    -0.07600
C1039       C  0.16573232  0.49519204  0.83875703     0.05900
C1040       C  0.13607849  0.51452989  0.83546537    -0.02600
Br1041     Br  0.12988664  0.54636523  0.79953955    -0.02300
H1042       H  0.08759005  0.52641181  0.85642736     0.09800
H1043       H  0.19127132  0.96248747  0.86758994     0.07900
Br1044     Br  0.15242227  0.94709474  0.92825819    -0.02700
C1045       C  0.11042955  0.50833780  0.64309822    -0.09400
C1046       C  0.11536804  0.49054548  0.61273084     0.06800
C1047       C  0.14789904  0.98086421  0.60639608    -0.03100
C1048       C  0.17166356  0.98222697  0.63245894    -0.07600
C1049       C  0.16478363  0.48924362  0.66442662     0.05900
C1050       C  0.13512629  0.50875186  0.66821788    -0.02600
Br1051     Br  0.12818125  0.53903955  0.70541807    -0.02300
H1052       H  0.08787295  0.52343764  0.64667267     0.09800
H1053       H  0.19495156  0.96806416  0.62986871     0.07900
Br1054     Br  0.15995592  0.95470114  0.56725518    -0.02700
C1055       C  0.36333694  0.98466765  0.60932948    -0.09400
C1056       C  0.39143901  0.50239650  0.61244323     0.06800
C1057       C  0.38641698  0.53021419  0.63378565    -0.03100
C1058       C  0.36051847  0.52946252  0.65808086    -0.07600
C1059       C  0.34032071  0.50080872  0.66188003     0.05900
C1060       C  0.33838807  0.98299601  0.63421299    -0.02600
Br1061     Br  0.30332444  0.95031928  0.62877370    -0.02300
H1062       H  0.36097056  0.96932717  0.58697303     0.09800
H1063       H  0.35640784  0.55097000  0.67437428     0.07900
Br1064     Br  0.41442724  0.56935900  0.63066114    -0.02700
C1065       C  0.03054575  0.64362687  0.84221611    -0.09400
C1066       C  0.00102946  0.66274322  0.83849428     0.06800
C1067       C  0.47332827  0.65712038  0.86037453    -0.03100
C1068       C  0.47556069  0.63269472  0.88568688    -0.07600
C1069       C  0.00474315  0.61294128  0.88885968     0.05900
C1070       C  0.03253458  0.61876328  0.86715732    -0.02600
Br1071     Br  0.07418718  0.59479344  0.87167788    -0.02300
H1072       H  0.05205589  0.64813430  0.82566968     0.09800
H1073       H  0.45409344  0.62843680  0.90237425     0.07900
Br1074     Br  0.43148642  0.68089969  0.85535638    -0.02700
C1075       C  0.47121085  0.86056678  0.89208168    -0.09400
C1076       C  0.99350906  0.88764669  0.88763516     0.06800
C1077       C  0.01305520  0.88934395  0.85752871    -0.03100
C1078       C  0.01039131  0.86419111  0.83305212    -0.07600
C1079       C  0.98813913  0.83716604  0.83740009     0.05900
C1080       C  0.46802153  0.83574648  0.86714337    -0.02600
Br1081     Br  0.43529631  0.80097152  0.87458115    -0.02300
H1082       H  0.45568809  0.85902995  0.91479430     0.09800
H1083       H  0.02634226  0.86540710  0.81061441     0.07900
Br1084     Br  0.04568560  0.92396933  0.84910610    -0.02700
C1085       C  0.48233058  0.83196949  0.63353341    -0.09400
C1086       C  0.00193823  0.83634346  0.66259341     0.06800
C1087       C  0.02154287  0.86570518  0.66553624    -0.03100
C1088       C  0.02063812  0.89015390  0.64001764    -0.07600
C1089       C  0.00086328  0.88584919  0.61098015     0.05900
C1090       C  0.48171386  0.85614600  0.60782474    -0.02600
Br1091     Br  0.45245730  0.84761103  0.57030611    -0.02300
H1092       H  0.46700365  0.80966234  0.63105567     0.09800
H1093       H  0.03586240  0.91250423  0.64271217     0.05800
Br1094     Br  0.05055964  0.87350116  0.70338339    -0.02700
C1095       C  0.48270937  0.66346360  0.63654520    -0.09400
C1096       C  0.00754271  0.66242289  0.66167896     0.06800
C1097       C  0.03239929  0.63703156  0.66026209    -0.03100
C1098       C  0.03069887  0.61191806  0.63549329    -0.07600
C1099       C  0.00548832  0.61257566  0.61073070     0.05900
C1100       C  0.48193745  0.63931267  0.61080744    -0.02600
Br1101     Br  0.44769815  0.64375658  0.57696637    -0.02300
H1102       H  0.46382282  0.68320159  0.63699206     0.09800
H1103       H  0.04970506  0.59229252  0.63499059     0.07900
Br1104     Br  0.07011797  0.63682042  0.69034891    -0.02700
N1105       N  0.50087875  0.25054952  0.19938524    -0.36800
N1106       N  0.50049302  0.19967805  0.25135454    -0.57400
N1107       N  0.50162113  0.25109099  0.30265098    -0.36800
N1108       N  0.50341534  0.30198490  0.25094867    -0.57400
C1109       C  0.50864126  0.22274276  0.18116964     0.26800
C1110       C  0.51093219  0.27753322  0.18107022     0.26800
C1111       C  0.51098239  0.22369507  0.32034741     0.26800
C1112       C  0.51193849  0.27811684  0.32013126     0.26800
C1113       C  0.49122550  0.18126684  0.22432891     0.35400
C1114       C  0.49153247  0.18194910  0.27917966     0.35400
C1115       C  0.49702886  0.32115555  0.22358619     0.35400
C1116       C  0.49628153  0.32107993  0.27828790     0.35400
C1117       C  0.52398205  0.23216575  0.15089416    -0.22100
C1118       C  0.52535868  0.26680411  0.15080581    -0.22100
C1119       C  0.52817433  0.23335570  0.34918786    -0.22100
C1120       C  0.52851366  0.26795867  0.34918998    -0.22100
C1121       C  0.47589946  0.15182996  0.23498670    -0.23200
C1122       C  0.47604906  0.15228379  0.26984378    -0.23200
C1123       C  0.48551153  0.35257952  0.23355608    -0.23200
C1124       C  0.48503936  0.35252135  0.26837895    -0.23200
C1125       C  0.49982617  0.18948723  0.19050316    -0.18500
C1126       C  0.50474213  0.31143586  0.19005622    -0.18500
C1127       C  0.50355251  0.31136735  0.31169915    -0.18500
C1128       C  0.50081674  0.19081130  0.31244391    -0.18500
H1129       H  0.53282543  0.21582617  0.13078107     0.14400
H1130       H  0.53541953  0.28235043  0.13061270     0.14400
H1131       H  0.53829570  0.21721969  0.36872328     0.14400
H1132       H  0.53905893  0.28381822  0.36861444     0.14400
H1133       H  0.46639705  0.13180689  0.21929117     0.12700
H1134       H  0.46660664  0.13269190  0.28638826     0.12700
H1135       H  0.47901475  0.37359842  0.21746558     0.12700
H1136       H  0.47820616  0.37346520  0.28450808     0.12700
H1137       H  0.48578895  0.25125183  0.22113213     0.25900
H1138       H  0.48494813  0.25144953  0.28239665     0.25900
O1139       O  0.49925600  0.09574233  0.05521875    -0.86700
O1140       O  0.49495080  0.40543639  0.05647433    -0.86900
O1141       O  0.94838008  0.00081812  0.09869796    -0.88500
O1142       O  0.55844935  0.00243007  0.09452023    -0.87300
O1143       O  0.59545262  0.49693284  0.05630429    -0.86900
O1144       O  0.90427509  0.50189348  0.05513535    -0.88300
O1145       O  0.50085798  0.44591408  0.09735014    -0.86700
O1146       O  0.50056640  0.05514707  0.09654124    -0.86300
Zr1147     Zr  0.49963930  0.50025900  0.06893649     2.84300
O1148       O  0.53198816  0.46472059  0.03475813    -1.08300
O1149       O  0.96755990  0.03471774  0.03576646    -1.09000
C1150       C  0.49912398  0.08606256  0.08650214     1.06400
C1151       C  0.49807678  0.41514796  0.08754559     1.06300
C1152       C  0.91730749  0.00120805  0.08940669     1.09300
C1153       C  0.58931677  0.00187442  0.08336151     1.07100
H1154       H  0.94893014  0.45392800  0.04929856     0.32700
O1155       O  0.96367771  0.46754822  0.03532736    -1.29300
H1156       H  0.55009246  0.04752612  0.04716914     0.32300
O1157       O  0.53571514  0.03347810  0.03368852    -1.30900
O1158       O  0.49916487  0.40381701  0.44490993    -0.86700
O1159       O  0.50425749  0.09420503  0.44415327    -0.88200
O1160       O  0.90278721  0.44831579  0.49657391    -0.86800
O1161       O  0.59409836  0.43777315  0.50097267    -0.86800
O1162       O  0.59877282  0.04945207  0.49978506    -0.86500
O1163       O  0.90643950  0.05587307  0.50219741    -0.86300
O1164       O  0.95049507  0.49944868  0.40178455    -0.86700
O1165       O  0.56065441  0.49985950  0.40532403    -0.86200
O1166       O  0.90863299  0.50028926  0.44256815    -0.87200
O1167       O  0.60034762  0.49375409  0.44696609    -0.86400
O1168       O  0.94191114  0.40584662  0.49568273    -0.86800
O1169       O  0.94849472  0.09541051  0.50031191    -0.86500
O1170       O  0.55900721  0.09176170  0.50007192    -0.86200
O1171       O  0.55092050  0.39933217  0.50086388    -0.86600
O1172       O  0.50466441  0.44442270  0.40379683    -0.86900
O1173       O  0.50255250  0.05400699  0.40273067    -0.88200
Zr1174     Zr  0.49837984  0.43096719  0.49994127     2.83100
Zr1175     Zr  0.50318802  0.06639890  0.49928451     2.83500
Zr1176     Zr  0.93418783  0.50113681  0.49902384     2.84100
Zr1177     Zr  0.57047143  0.49480084  0.50064392     2.83400
Zr1178     Zr  0.50422713  0.49893651  0.43136790     2.84200
O1179       O  0.53658490  0.03140393  0.46476885    -1.08800
O1180       O  0.96745663  0.46638393  0.46475548    -1.08300
C1181       C  0.50234876  0.41368492  0.41389374     1.06400
C1182       C  0.50374326  0.08475190  0.41284506     1.09000
C1183       C  0.91112998  0.41694339  0.49502078     1.06500
C1184       C  0.58238435  0.40749715  0.50095440     1.06900
C1185       C  0.58968253  0.08067881  0.50040915     1.06500
C1186       C  0.91716072  0.08642087  0.50191160     1.06000
C1187       C  0.91922423  0.49963142  0.41140547     1.06500
C1188       C  0.59134992  0.49686883  0.41588076     1.06000
H1189       H  0.95377624  0.04875154  0.45151778     0.32700
O1190       O  0.96760872  0.03429382  0.46531375    -1.29900
H1191       H  0.54919902  0.44834547  0.45224909     0.32700
O1192       O  0.53542065  0.46286825  0.46606843    -1.31300
N1193       N  0.75001873  0.00111670  0.30093544    -0.36800
N1194       N  0.69959567  0.01108712  0.24750774    -0.57400
N1195       N  0.75191511  0.00084393  0.19767222    -0.36800
N1196       N  0.80187817  0.99323351  0.25126471    -0.57400
C1197       C  0.72322492  0.01328233  0.31839799     0.26800
C1198       C  0.77756546  0.00544401  0.32046840     0.26800
C1199       C  0.72650818  0.01219370  0.17799926     0.26800
C1200       C  0.78093908  0.00501024  0.17998439     0.26800
C1201       C  0.67946387  0.00537407  0.27466685     0.35400
C1202       C  0.68052880  0.00530437  0.21993804     0.35400
C1203       C  0.82024833  0.98573975  0.27890919     0.35400
C1204       C  0.82129108  0.98564817  0.22412929     0.35400
C1205       C  0.73365396  0.02537944  0.34947557    -0.22100
C1206       C  0.76807967  0.02062161  0.35070519    -0.22100
C1207       C  0.73944826  0.02345039  0.14730295    -0.22100
C1208       C  0.77385267  0.01889422  0.14851729    -0.22100
C1209       C  0.64738093  0.99641391  0.26439339    -0.23200
C1210       C  0.64811703  0.99615467  0.22961683    -0.23200
C1211       C  0.85143393  0.97284921  0.26933860    -0.23200
C1212       C  0.85215932  0.97290374  0.23453469    -0.23200
C1213       C  0.68933582  0.00980231  0.30855140    -0.18500
C1214       C  0.81061793  0.99439059  0.31226732    -0.18500
C1215       C  0.81327880  0.99445760  0.19055566    -0.18500
C1216       C  0.69181974  0.00999553  0.18625676    -0.18500
H1217       H  0.71795443  0.03595351  0.36939771     0.14400
H1218       H  0.78416224  0.02698539  0.37172648     0.14400
H1219       H  0.72550759  0.03346824  0.12609357     0.14400
H1220       H  0.79152255  0.02463735  0.12824589     0.14400
H1221       H  0.62573606  0.99065693  0.28029245     0.12700
H1222       H  0.62718041  0.99007220  0.21336137     0.12700
H1223       H  0.87195199  0.96545337  0.28567891     0.12700
H1224       H  0.87344735  0.96561871  0.21875016     0.12700
H1225       H  0.74855803  0.98670042  0.27906025     0.25900
H1226       H  0.74924483  0.98733728  0.22009319     0.25900
N1227       N  0.74812676  0.29887149  0.49255707    -0.36800
N1228       N  0.80227600  0.24994218  0.49405220    -0.57400
N1229       N  0.75200464  0.19638018  0.50429072    -0.36800
N1230       N  0.69800077  0.24539395  0.49927693    -0.57400
C1231       C  0.77453171  0.31828511  0.48260694     0.26800
C1232       C  0.71934711  0.31599069  0.48583953     0.26800
C1233       C  0.78033160  0.17802126  0.49886678     0.26800
C1234       C  0.72530336  0.17565529  0.50021319     0.26800
C1235       C  0.82058410  0.27842312  0.49733430     0.35400
C1236       C  0.82245437  0.22422854  0.50373354     0.35400
C1237       C  0.67729458  0.27219740  0.50282964     0.35400
C1238       C  0.67930123  0.21798926  0.50676162     0.35400
C1239       C  0.76227344  0.34799638  0.46905038    -0.22100
C1240       C  0.72756817  0.34672448  0.47144419    -0.22100
C1241       C  0.77150091  0.14508178  0.49187494    -0.22100
C1242       C  0.73683673  0.14358080  0.49285605    -0.22100
C1243       C  0.85251367  0.27064087  0.50917789    -0.23200
C1244       C  0.85375826  0.23637098  0.51300059    -0.23200
C1245       C  0.64518712  0.26166946  0.51234430    -0.23200
C1246       C  0.64645954  0.22733135  0.51472199    -0.23200
C1247       C  0.80924339  0.31114330  0.48840556    -0.18500
C1248       C  0.68610915  0.30570205  0.49480732    -0.18500
C1249       C  0.69084473  0.18450515  0.50423848    -0.18500
C1250       C  0.81393685  0.18973670  0.50190610    -0.18500
H1251       H  0.77682366  0.36886607  0.45926122     0.14400
H1252       H  0.71042681  0.36650005  0.46388490     0.14400
H1253       H  0.78825310  0.12415591  0.48671262     0.14400
H1254       H  0.72185700  0.12133273  0.48869794     0.14400
H1255       H  0.87290792  0.28779702  0.51438605     0.12700
H1256       H  0.87530430  0.22198499  0.52151331     0.12700
H1257       H  0.62289351  0.27698888  0.51635424     0.12700
H1258       H  0.62552373  0.21107696  0.52120032     0.12700
H1259       H  0.74961856  0.27730361  0.50724020     0.25900
H1260       H  0.75122332  0.22074822  0.51348235     0.25900
C1261       C  0.82912792  0.36761137  0.50853153    -0.09400
C1262       C  0.83431613  0.33961409  0.48742115     0.06800
C1263       C  0.86361093  0.33902156  0.46664500    -0.03100
C1264       C  0.88826740  0.36410140  0.46979623    -0.07600
C1265       C  0.88357162  0.39154996  0.49177918     0.05900
C1266       C  0.85270758  0.39381486  0.51003073    -0.02600
Br1267     Br  0.83556853  0.43903910  0.03235143    -0.02300
H1268       H  0.80286800  0.37528232  0.02521583     0.09800
H1269       H  0.91097662  0.36252097  0.45434312     0.07900
Br1270     Br  0.87038170  0.30552231  0.43234876    -0.02700
C1271       C  0.89077113  0.13713787  0.47684191    -0.09400
C1272       C  0.89141193  0.11325901  0.50297180     0.06800
C1273       C  0.86036047  0.11414303  0.02131740    -0.03100
C1274       C  0.83684450  0.14045064  0.02094758    -0.07600
C1275       C  0.84166522  0.16425848  0.50254486     0.05900
C1276       C  0.86579641  0.16207298  0.47608660    -0.02600
Br1277     Br  0.86435217  0.19109222  0.43726002    -0.02300
H1278       H  0.90908007  0.13566144  0.45629820     0.09800
H1279       H  0.81462830  0.13888082  0.03711877     0.07900
Br1280     Br  0.85044735  0.07686175  0.05053302    -0.02700
C1281       C  0.64114499  0.34286429  0.03223265    -0.09400
C1282       C  0.65880335  0.33142710  0.49596492     0.06800
C1283       C  0.64273349  0.34263016  0.46632622    -0.03100
C1284       C  0.61713851  0.36682667  0.46855943    -0.07600
C1285       C  0.60713043  0.37998190  0.50000098     0.05900
C1286       C  0.61574733  0.36740271  0.03364937    -0.02600
Br1287     Br  0.59474913  0.37725982  0.07655886    -0.02300
H1288       H  0.65003640  0.33156599  0.05549263     0.09800
H1289       H  0.60498295  0.37544431  0.44567287     0.07900
Br1290     Br  0.65465571  0.32539207  0.42244822    -0.02700
C1291       C  0.64171041  0.10678367  0.01848145    -0.09400
C1292       C  0.61643368  0.10610501  0.50116674     0.06800
C1293       C  0.62504028  0.12415678  0.47172659    -0.03100
C1294       C  0.64931040  0.14953122  0.47315375    -0.07600
C1295       C  0.66522661  0.15726887  0.50376731     0.05900
C1296       C  0.66674934  0.13156272  0.01954857    -0.02600
Br1297     Br  0.69881506  0.12978271  0.05564751    -0.02300
H1298       H  0.64234089  0.08641784  0.03669543     0.09800
H1299       H  0.65583614  0.16328951  0.45033217     0.07900
Br1300     Br  0.60436516  0.11441883  0.42908032    -0.02700
C1301       C  0.86191542  0.02050225  0.33678781    -0.09400
C1302       C  0.83714419  0.99546236  0.33873308     0.06800
C1303       C  0.84407528  0.46893211  0.36232310    -0.03100
C1304       C  0.86883953  0.47235839  0.38710705    -0.07600
C1305       C  0.89335181  0.49762482  0.38473099     0.05900
C1306       C  0.88716764  0.02275552  0.36121857    -0.02600
Br1307     Br  0.91767988  0.06000336  0.35848405    -0.02300
H1308       H  0.86120704  0.03874641  0.31642052     0.09800
H1309       H  0.86924358  0.45487635  0.40816428     0.07900
Br1310     Br  0.81247323  0.43280204  0.36694489    -0.02700
C1311       C  0.61744853  0.03015531  0.36905042    -0.09400
C1312       C  0.61850844  0.49758653  0.39039163     0.06800
C1313       C  0.64168528  0.47092249  0.38685489    -0.03100
C1314       C  0.66627423  0.47208767  0.36142338    -0.07600
C1315       C  0.66342309  0.00722874  0.33551848     0.05900
C1316       C  0.64181783  0.03414011  0.34359621    -0.02600
Br1317     Br  0.64519757  0.07676025  0.32121213    -0.02300
H1318       H  0.60190851  0.05133300  0.37632255     0.09800
H1319       H  0.68363106  0.45120866  0.35829229     0.07900
Br1320     Br  0.64083374  0.43219145  0.41545912    -0.02700
C1321       C  0.61460131  0.03012589  0.13295778    -0.09400
C1322       C  0.61655658  0.00473219  0.10839964     0.06800
C1323       C  0.64062957  0.47758321  0.11163759    -0.03100
C1324       C  0.66484073  0.47832126  0.13708371    -0.07600
C1325       C  0.66669874  0.01026549  0.15837777     0.05900
C1326       C  0.63976270  0.03351913  0.15735239    -0.02600
Br1327     Br  0.63670682  0.07078856  0.18798735    -0.02300
H1328       H  0.59369492  0.04774568  0.13280689     0.09800
H1329       H  0.68623283  0.46133364  0.13558605     0.07900
Br1330     Br  0.64856188  0.44690222  0.07503036    -0.02700
C1331       C  0.86508199  0.47376525  0.11212773    -0.09400
C1332       C  0.89194344  0.99966057  0.11629889     0.06800
C1333       C  0.88239942  0.02844979  0.13452743    -0.03100
C1334       C  0.85712429  0.02613672  0.15923791    -0.07600
C1335       C  0.84101638  0.99546876  0.16552556     0.05900
C1336       C  0.83937541  0.47195486  0.13632043    -0.02600
Br1337     Br  0.80974600  0.43395679  0.13589755    -0.02300
H1338       H  0.86810370  0.45371121  0.09394243     0.09800
H1339       H  0.84948592  0.04837329  0.17313696     0.07900
Br1340     Br  0.90280668  0.07126826  0.12617569    -0.02700
C1341       C  0.52091632  0.13529227  0.33267171    -0.09400
C1342       C  0.50183741  0.16432582  0.33899096     0.06800
C1343       C  0.98317644  0.16681917  0.36954164    -0.03100
C1344       C  0.98494254  0.14097011  0.39346290    -0.07600
C1345       C  0.50353975  0.11154822  0.38683173     0.05900
C1346       C  0.52081434  0.10853367  0.35547210    -0.02600
Br1347     Br  0.54374851  0.06863559  0.34099543    -0.02300
H1348       H  0.53507375  0.13295995  0.30913767     0.09800
H1349       H  0.97056575  0.14332145  0.41685585     0.07900
Br1350     Br  0.95300177  0.20354944  0.37894564    -0.02700
C1351       C  0.97789324  0.36314121  0.38794184    -0.09400
C1352       C  0.50332937  0.38751771  0.38790716     0.06800
C1353       C  0.52916411  0.38637218  0.36311410    -0.03100
C1354       C  0.52917007  0.36102535  0.33880688    -0.07600
C1355       C  0.50344930  0.33704517  0.33854198     0.05900
C1356       C  0.97753801  0.33822810  0.36316806    -0.02600
Br1357     Br  0.94037903  0.30751597  0.36275685    -0.02300
H1358       H  0.95779581  0.36402496  0.40676133     0.09800
H1359       H  0.54915532  0.36008273  0.31987239     0.07900
Br1360     Br  0.56560570  0.41789993  0.36190505    -0.02700
C1361       C  0.97825991  0.33736983  0.13956938    -0.09400
C1362       C  0.50455537  0.33758117  0.16311975     0.06800
C1363       C  0.52827387  0.36391586  0.16218280    -0.03100
C1364       C  0.52534380  0.38936878  0.13784575    -0.07600
C1365       C  0.49929296  0.38884780  0.11394851     0.05900
C1366       C  0.97538971  0.36272346  0.11522563    -0.02600
Br1367     Br  0.93684971  0.36189553  0.08617159    -0.02300
H1368       H  0.95940169  0.31776875  0.14070497     0.09800
H1369       H  0.54387410  0.40930238  0.13715093     0.05800
Br1370     Br  0.56529680  0.36592891  0.19313499    -0.02700
C1371       C  0.97782093  0.16558660  0.13632462    -0.09400
C1372       C  0.49962229  0.16254432  0.16408095     0.06800
C1373       C  0.52050387  0.13380826  0.16630526    -0.03100
C1374       C  0.51937347  0.10907954  0.14116797    -0.07600
C1375       C  0.49815141  0.11242019  0.11307989     0.05900
C1376       C  0.97696162  0.14098781  0.11094348    -0.02600
Br1377     Br  0.94501621  0.14697192  0.07512822    -0.02300
H1378       H  0.96125973  0.18719888  0.13450829     0.09800
H1379       H  0.53589054  0.08744415  0.14316347     0.07900
Br1380     Br  0.55227473  0.12756407  0.20219310    -0.02700
N1381       N  0.49917967  0.24918424  0.69903718    -0.36800
N1382       N  0.49862189  0.19863626  0.75193617    -0.57400
N1383       N  0.49203285  0.25151849  0.80296044    -0.36800
N1384       N  0.49630075  0.30208007  0.74999361    -0.57400
C1385       C  0.50904934  0.22167404  0.68132790     0.26800
C1386       C  0.50752732  0.27644094  0.68024671     0.26800
C1387       C  0.49755339  0.22458548  0.82311289     0.26800
C1388       C  0.49693623  0.27933809  0.82190977     0.26800
C1389       C  0.49470853  0.17856352  0.72460869     0.35400
C1390       C  0.49100964  0.17982666  0.77951148     0.35400
C1391       C  0.49188142  0.32084384  0.72185210     0.35400
C1392       C  0.48900285  0.32220639  0.77662250     0.35400
C1393       C  0.52392054  0.23164971  0.65098985    -0.22100
C1394       C  0.52282398  0.26619844  0.65024705    -0.22100
C1395       C  0.50547673  0.23541026  0.85545447    -0.22100
C1396       C  0.50509322  0.26994188  0.85469044    -0.22100
C1397       C  0.48441138  0.14691525  0.73493732    -0.23200
C1398       C  0.48245470  0.14760817  0.76970524    -0.23200
C1399       C  0.48178276  0.35306959  0.73064009    -0.23200
C1400       C  0.48013458  0.35396772  0.76539011    -0.23200
C1401       C  0.50274531  0.18786347  0.69076712    -0.18500
C1402       C  0.49982089  0.31016006  0.68859491    -0.18500
C1403       C  0.49241954  0.31292042  0.81096142    -0.18500
C1404       C  0.49389489  0.19055488  0.81353130    -0.18500
H1405       H  0.53417726  0.21566462  0.63124647     0.14400
H1406       H  0.53206837  0.28199189  0.62985990     0.14400
H1407       H  0.51067650  0.22004222  0.87744180     0.14400
H1408       H  0.50993499  0.28625952  0.87597825     0.14400
H1409       H  0.47944291  0.12535671  0.71915288     0.12700
H1410       H  0.47561201  0.12674037  0.78593804     0.12700
H1411       H  0.47682798  0.37395519  0.71381837     0.12700
H1412       H  0.47346575  0.37558357  0.78065461     0.12700
H1413       H  0.48391543  0.24930127  0.72062365     0.25900
H1414       H  0.48214149  0.25086015  0.77873046     0.25900
O1415       O  0.50212130  0.09492318  0.55397978    -0.86700
O1416       O  0.49502417  0.40386195  0.55520087    -0.86900
O1417       O  0.94890964  0.00229762  0.59685231    -0.88500
O1418       O  0.55866663  0.99813084  0.59426206    -0.87300
O1419       O  0.59868630  0.49198617  0.55499396    -0.86900
O1420       O  0.90761935  0.50160978  0.55512459    -0.88300
O1421       O  0.50075489  0.44442212  0.59611372    -0.86700
O1422       O  0.50350042  0.05423273  0.59516193    -0.86300
Zr1423     Zr  0.50262938  0.49921874  0.56822109     2.84300
O1424       O  0.53436039  0.46256286  0.53441805    -1.08300
O1425       O  0.96890002  0.03319192  0.53400080    -1.09000
C1426       C  0.50248347  0.08527982  0.58524436     1.06400
C1427       C  0.49735738  0.41369951  0.58624047     1.06300
C1428       C  0.91796594  0.00377553  0.58715349     1.09300
C1429       C  0.58973706  0.99673195  0.58373318     1.07100
H1430       H  0.95144861  0.45327987  0.54850679     0.32700
O1431       O  0.96633789  0.46663328  0.53442355    -1.29300
H1432       H  0.55155389  0.04473378  0.54663422     0.32300
O1433       O  0.53710494  0.03125542  0.53265694    -1.30900
O1434       O  0.49463426  0.40525109  0.94533539    -0.86700
O1435       O  0.49964381  0.09521530  0.94527436    -0.88200
O1436       O  0.90070052  0.45056454  0.99742512    -0.86800
O1437       O  0.59213700  0.44091324  0.00370846    -0.86800
O1438       O  0.59694484  0.05249837  0.99728395    -0.86500
O1439       O  0.90547664  0.05786949  0.00193200    -0.86300
O1440       O  0.94732184  0.50189052  0.90420840    -0.86700
O1441       O  0.55738633  0.49663192  0.90559766    -0.86200
O1442       O  0.90545471  0.50238386  0.94501761    -0.87200
O1443       O  0.59742304  0.49468671  0.94713091    -0.86400
O1444       O  0.93950570  0.40784876  0.99731958    -0.86800
O1445       O  0.94714529  0.09759162  0.99965918    -0.86500
O1446       O  0.55677659  0.09422556  0.99772408    -0.86200
O1447       O  0.54924930  0.40208484  0.00266576    -0.86600
O1448       O  0.49898950  0.44615460  0.90433288    -0.86900
O1449       O  0.50101842  0.05460412  0.90393470    -0.88200
Zr1450     Zr  0.49619904  0.43250257  0.00075403     2.83100
Zr1451     Zr  0.50129683  0.06776696  0.00016364     2.83500
Zr1452     Zr  0.93211862  0.50291759  0.00018868     2.84100
Zr1453     Zr  0.56811180  0.49760847  0.00141630     2.83400
Zr1454     Zr  0.50170120  0.50064071  0.93234092     2.84200
O1455       O  0.53495157  0.03320974  0.96526407    -1.08800
O1456       O  0.96530690  0.46821696  0.96596176    -1.08300
C1457       C  0.49620945  0.41534428  0.91421394     1.06400
C1458       C  0.50003214  0.08545491  0.91415461     1.09000
C1459       C  0.90882197  0.41919983  0.99639598     1.06500
C1460       C  0.58057914  0.41058093  0.00376251     1.06900
C1461       C  0.58767494  0.08368328  0.99683158     1.06500
C1462       C  0.91580848  0.08862908  0.00090683     1.06000
C1463       C  0.91612247  0.50211617  0.91402190     1.06500
C1464       C  0.58822733  0.49459840  0.91588046     1.06000
H1465       H  0.95259956  0.04854747  0.95245371     0.32700
O1466       O  0.96661966  0.03449563  0.96645984    -1.29900
H1467       H  0.54666220  0.45014058  0.95336684     0.32700
O1468       O  0.53307173  0.46488812  0.96716094    -1.31300
N1469       N  0.75335784  0.99854470  0.80161238    -0.36800
N1470       N  0.70135187  0.00235658  0.74974116    -0.57400
N1471       N  0.75301623  0.00152472  0.69867288    -0.36800
N1472       N  0.80497135  0.99999183  0.75043538    -0.57400
C1473       C  0.72586525  0.00695692  0.82027762     0.26800
C1474       C  0.78078179  0.00504822  0.82055868     0.26800
C1475       C  0.72573658  0.01071437  0.68043937     0.26800
C1476       C  0.78066910  0.01142830  0.68116672     0.26800
C1477       C  0.68337387  0.99260749  0.77721814     0.35400
C1478       C  0.68313849  0.99350135  0.72240688     0.35400
C1479       C  0.82424738  0.99198474  0.77724134     0.35400
C1480       C  0.82400353  0.99409157  0.72263042     0.35400
C1481       C  0.73593373  0.01917849  0.85148984    -0.22100
C1482       C  0.77068372  0.01776426  0.85173509    -0.22100
C1483       C  0.73613656  0.02688200  0.65105468    -0.22100
C1484       C  0.77090907  0.02744340  0.65155495    -0.22100
C1485       C  0.65369081  0.97727637  0.76734874    -0.23200
C1486       C  0.65358742  0.97777724  0.73250217    -0.23200
C1487       C  0.85578691  0.98093858  0.76654348    -0.23200
C1488       C  0.85557688  0.98204808  0.73176584    -0.23200
C1489       C  0.69220107  0.00027902  0.81089634    -0.18500
C1490       C  0.81438548  0.99741257  0.81111000    -0.18500
C1491       C  0.81421587  0.00290377  0.68957542    -0.18500
C1492       C  0.69207439  0.00219270  0.68881583    -0.18500
H1493       H  0.71992158  0.02738689  0.87227794     0.14400
H1494       H  0.78664975  0.02475645  0.87265098     0.14400
H1495       H  0.72036373  0.03670751  0.63109999     0.14400
H1496       H  0.78718966  0.03756951  0.63188944     0.14400
H1497       H  0.63399720  0.96721475  0.78358683     0.12700
H1498       H  0.63383901  0.96821199  0.71647044     0.12700
H1499       H  0.87682564  0.97341088  0.78214909     0.12700
H1500       H  0.87652074  0.97550773  0.71519773     0.12700
H1501       H  0.75315168  0.98501650  0.77910155     0.25900
H1502       H  0.75294719  0.98539678  0.71946008     0.25900
N1503       N  0.74495740  0.30202894  0.99843360    -0.36800
N1504       N  0.80029237  0.25378465  0.99568004    -0.57400
N1505       N  0.75165279  0.19956549  0.99902916    -0.36800
N1506       N  0.69646745  0.24753901  0.99912776    -0.57400
C1507       C  0.77105943  0.32220622  0.98933358     0.26800
C1508       C  0.71595227  0.31923040  0.99297984     0.26800
C1509       C  0.78041524  0.18341672  0.98980265     0.26800
C1510       C  0.72552739  0.17982229  0.99001249     0.26800
C1511       C  0.81693415  0.28224371  0.00337847     0.35400
C1512       C  0.82038973  0.22797195  0.00509394     0.35400
C1513       C  0.67491434  0.27330513  0.00502827     0.35400
C1514       C  0.67869072  0.21904476  0.00413976     0.35400
C1515       C  0.75829534  0.35257433  0.97776703    -0.22100
C1516       C  0.72370556  0.35099564  0.98084883    -0.22100
C1517       C  0.77250265  0.15324648  0.97442736    -0.22100
C1518       C  0.73780813  0.15094810  0.97460920    -0.22100
C1519       C  0.84756683  0.27446950  0.01827336    -0.23200
C1520       C  0.84980035  0.24000395  0.01925498    -0.23200
C1521       C  0.64316489  0.26112861  0.01341024    -0.23200
C1522       C  0.64564139  0.22678561  0.01321480    -0.23200
C1523       C  0.80590792  0.31484338  0.99428561    -0.18500
C1524       C  0.68280370  0.30754144  0.00008458    -0.18500
C1525       C  0.69109551  0.18633760  0.99742848    -0.18500
C1526       C  0.81341076  0.19399168  0.99790875    -0.18500
H1527       H  0.77233736  0.37407371  0.96870814     0.14400
H1528       H  0.70635680  0.37107879  0.97470656     0.14400
H1529       H  0.78994348  0.13458776  0.96462310     0.14400
H1530       H  0.72327874  0.13018881  0.96492290     0.14400
H1531       H  0.86659117  0.29182166  0.02687577     0.12700
H1532       H  0.87088614  0.22548827  0.02862842     0.12700
H1533       H  0.62040701  0.27541192  0.01857203     0.12700
H1534       H  0.62517454  0.20956443  0.01843037     0.12700
H1535       H  0.74685603  0.27930687  0.01121957     0.25900
H1536       H  0.75013440  0.22069689  0.01445629     0.25900
C1537       C  0.82589613  0.37227465  0.01047846    -0.09400
C1538       C  0.83152714  0.34258761  0.99213014     0.06800
C1539       C  0.86182414  0.33969766  0.97293836    -0.03100
C1540       C  0.88654770  0.36473164  0.97489593    -0.07600
C1541       C  0.88105334  0.39415388  0.99382425     0.05900
C1542       C  0.84931836  0.39846135  0.01008700    -0.02600
Br1543     Br  0.84124069  0.43147562  0.53811375    -0.02300
H1544       H  0.80651314  0.36906494  0.52413936     0.09800
H1545       H  0.91001567  0.36145332  0.96091692     0.07900
Br1546     Br  0.87064853  0.30285721  0.94271253    -0.02700
C1547       C  0.89422922  0.14387650  0.97956728    -0.09400
C1548       C  0.88981493  0.11578683  0.00085414     0.06800
C1549       C  0.86687195  0.11492960  0.52906777    -0.03100
C1550       C  0.84269041  0.14064857  0.52900389    -0.07600
C1551       C  0.84092372  0.16815946  0.99930777     0.05900
C1552       C  0.86972321  0.16941781  0.97799694    -0.02600
Br1553     Br  0.87510042  0.20369839  0.94416116    -0.02300
H1554       H  0.91617381  0.14529394  0.96301582     0.09800
H1555       H  0.82409348  0.14184144  0.54929685     0.07900
Br1556     Br  0.86555234  0.08306178  0.56558487    -0.02700
C1557       C  0.64744478  0.34333006  0.52760384    -0.09400
C1558       C  0.65473117  0.33245585  0.00091284     0.06800
C1559       C  0.64156148  0.34597772  0.97078924    -0.03100
C1560       C  0.61769172  0.37179172  0.97235162    -0.07600
C1561       C  0.60529153  0.38318680  0.00359819     0.05900
C1562       C  0.62130878  0.36700167  0.52979401    -0.02600
Br1563     Br  0.60410117  0.37923145  0.57371468    -0.02300
H1564       H  0.65858085  0.33370377  0.55063335     0.09800
H1565       H  0.60840991  0.38273351  0.94906210     0.07900
Br1566     Br  0.65485896  0.32950870  0.92703339    -0.02700
C1567       C  0.63238099  0.11364960  0.53180754    -0.09400
C1568       C  0.61469968  0.10931992  0.99576344     0.06800
C1569       C  0.61368306  0.13688185  0.97325396    -0.03100
C1570       C  0.64014933  0.15994643  0.97244830    -0.07600
C1571       C  0.66636669  0.15821637  0.99598599     0.05900
C1572       C  0.65669079  0.13908607  0.53325461    -0.02600
Br1573     Br  0.67728826  0.14869947  0.57589825    -0.02300
H1574       H  0.62559640  0.10004962  0.55466704     0.09800
H1575       H  0.63924403  0.18064876  0.95464013     0.07900
Br1576     Br  0.57620340  0.14590365  0.94430286    -0.02700
C1577       C  0.86278898  0.02411709  0.83981105    -0.09400
C1578       C  0.84051710  0.99702689  0.83761163     0.06800
C1579       C  0.84308484  0.47446689  0.86093577    -0.03100
C1580       C  0.86750198  0.47546327  0.88619289    -0.07600
C1581       C  0.89043528  0.50211069  0.88761606     0.05900
C1582       C  0.88690177  0.02520070  0.86530470    -0.02600
Br1583     Br  0.91637806  0.06321187  0.86675845    -0.02300
H1584       H  0.86123338  0.04453914  0.82172948     0.09800
H1585       H  0.86923153  0.45495433  0.90417116     0.07900
Br1586     Br  0.81522653  0.43533494  0.85769163    -0.02700
C1587       C  0.60979832  0.01548455  0.85844603    -0.09400
C1588       C  0.61503708  0.49328418  0.88957770     0.06800
C1589       C  0.64532810  0.47487459  0.89356577    -0.03100
C1590       C  0.66989283  0.47537241  0.86785500    -0.07600
C1591       C  0.66538044  0.99962395  0.83750949     0.05900
C1592       C  0.63600077  0.01944487  0.83489887    -0.02600
Br1593     Br  0.63147424  0.05411303  0.80136900    -0.02300
H1594       H  0.58683791  0.02971757  0.85521025     0.09800
H1595       H  0.69257923  0.46039232  0.87067000     0.07900
Br1596     Br  0.65449652  0.44759863  0.93257743    -0.02700
C1597       C  0.61123603  0.01784247  0.63887544    -0.09400
C1598       C  0.61666227  0.99802077  0.60985123     0.06800
C1599       C  0.64587842  0.47225468  0.60829638    -0.03100
C1600       C  0.66944457  0.47082085  0.63447053    -0.07600
C1601       C  0.66596184  0.00169962  0.66159944     0.05900
C1602       C  0.63576876  0.02050792  0.66405693    -0.02600
Br1603     Br  0.62773039  0.05220287  0.69983853    -0.02300
H1604       H  0.58814964  0.03231708  0.64150736     0.09800
H1605       H  0.69227162  0.45610924  0.63092578     0.07900
Br1606     Br  0.65808274  0.44929308  0.56720336    -0.02700
C1607       C  0.87174976  0.47364567  0.61668717    -0.09400
C1608       C  0.89165537  0.00508501  0.61335632     0.06800
C1609       C  0.89391611  0.02599795  0.64196709    -0.03100
C1610       C  0.86793027  0.02572653  0.66609580    -0.07600
C1611       C  0.84039468  0.00392610  0.66272499     0.05900
C1612       C  0.84646042  0.47256483  0.64144115    -0.02600
Br1613     Br  0.82210627  0.43148450  0.64764572    -0.02300
H1614       H  0.87666263  0.45169683  0.60124782     0.09800
H1615       H  0.86937279  0.04219655  0.68784384     0.07900
Br1616     Br  0.93056847  0.05667653  0.64841975    -0.02700
C1617       C  0.52464731  0.14485246  0.84332287    -0.09400
C1618       C  0.49523108  0.16428688  0.84031576     0.06800
C1619       C  0.96759556  0.15791487  0.86209194    -0.03100
C1620       C  0.96963490  0.13216475  0.88616693    -0.07600
C1621       C  0.49870573  0.11209272  0.88839471     0.05900
C1622       C  0.52651069  0.11892221  0.86712460    -0.02600
Br1623     Br  0.56814731  0.09491167  0.87107057    -0.02300
H1624       H  0.54621959  0.14991606  0.82703237     0.09800
H1625       H  0.94829051  0.12746855  0.90288751     0.07900
Br1626     Br  0.92635935  0.18301103  0.85917464    -0.02700
C1627       C  0.96543892  0.37138906  0.88238228    -0.09400
C1628       C  0.49523148  0.38949923  0.88763858     0.06800
C1629       C  0.52381523  0.38281038  0.86722485    -0.03100
C1630       C  0.52236376  0.35811994  0.84210728    -0.07600
C1631       C  0.49260488  0.33994285  0.83689473     0.05900
C1632       C  0.96390499  0.34693262  0.85696864    -0.02600
Br1633     Br  0.92206864  0.32403863  0.84986078    -0.02300
H1634       H  0.94323600  0.37655907  0.89780325     0.09800
H1635       H  0.54462554  0.35274679  0.82685857     0.07900
Br1636     Br  0.56577187  0.40570100  0.87398270    -0.02700
C1637       C  0.97276261  0.33815753  0.63935895    -0.09400
C1638       C  0.50032271  0.33583830  0.66124278     0.06800
C1639       C  0.52660852  0.35942475  0.65847828    -0.03100
C1640       C  0.52476806  0.38509949  0.63437981    -0.07600
C1641       C  0.49720685  0.38743335  0.61247965     0.05900
C1642       C  0.97096188  0.36376659  0.61511252    -0.02600
Br1643     Br  0.93110121  0.36684204  0.58796104    -0.02300
H1644       H  0.95218352  0.32045332  0.64174754     0.09800
H1645       H  0.54523145  0.40298518  0.63231696     0.05800
Br1646     Br  0.56561698  0.35727022  0.68677737    -0.02700
C1647       C  0.98169912  0.16455805  0.63600514    -0.09400
C1648       C  0.50358522  0.16146419  0.66361256     0.06800
C1649       C  0.52577906  0.13364768  0.66456285    -0.03100
C1650       C  0.52435319  0.10884604  0.63938082    -0.07600
C1651       C  0.50234753  0.11187440  0.61180671     0.05900
C1652       C  0.98134144  0.14061769  0.60999125    -0.02600
Br1653     Br  0.95073659  0.14840846  0.57336173    -0.02300
H1654       H  0.96476485  0.18592404  0.63462652     0.09800
H1655       H  0.54138799  0.08756549  0.64077054     0.07900
Br1656     Br  0.56002207  0.12937667  0.69836263    -0.02700
N1657       N  0.49428196  0.74813352  0.19845029    -0.36800
N1658       N  0.49324237  0.69755939  0.25094537    -0.57400
N1659       N  0.48760069  0.74963368  0.30201481    -0.36800
N1660       N  0.49063139  0.80005666  0.24927001    -0.57400
C1661       C  0.50461747  0.72075345  0.18102737     0.26800
C1662       C  0.50299772  0.77533751  0.17989216     0.26800
C1663       C  0.49642858  0.72268917  0.32087542     0.26800
C1664       C  0.49496899  0.77741091  0.32012430     0.26800
C1665       C  0.48782027  0.67817666  0.22353403     0.35400
C1666       C  0.48450970  0.67898375  0.27824358     0.35400
C1667       C  0.48493586  0.81860527  0.22121869     0.35400
C1668       C  0.48210697  0.81957572  0.27597198     0.35400
C1669       C  0.52035145  0.73064607  0.15108692    -0.22100
C1670       C  0.51924024  0.76520930  0.15033424    -0.22100
C1671       C  0.50978443  0.73345762  0.35133720    -0.22100
C1672       C  0.50862814  0.76806289  0.35095528    -0.22100
C1673       C  0.47525941  0.64719407  0.23340267    -0.23200
C1674       C  0.47332178  0.64764519  0.26815754    -0.23200
C1675       C  0.47259755  0.84999182  0.23011734    -0.23200
C1676       C  0.47088598  0.85063645  0.26489640    -0.23200
C1677       C  0.49709090  0.68729081  0.19015394    -0.18500
C1678       C  0.49435033  0.80875999  0.18809859    -0.18500
C1679       C  0.48760145  0.81072798  0.31008190    -0.18500
C1680       C  0.49019546  0.68886276  0.31203881    -0.18500
H1681       H  0.53085857  0.71461037  0.13150883     0.14400
H1682       H  0.52878352  0.78104485  0.13011977     0.14400
H1683       H  0.51879177  0.71799925  0.37195396     0.14400
H1684       H  0.51666402  0.78445192  0.37114437     0.14400
H1685       H  0.46896687  0.62618945  0.21734005     0.12700
H1686       H  0.46522122  0.62706435  0.28418094     0.12700
H1687       H  0.46636667  0.87055423  0.21333440     0.12700
H1688       H  0.46299097  0.87175795  0.28029069     0.12700
H1689       H  0.47825931  0.74811575  0.21951074     0.25900
H1690       H  0.47368030  0.74902520  0.27979411     0.25900
O1691       O  0.49840039  0.59583108  0.05501345    -0.86700
O1692       O  0.49696730  0.90446821  0.05552169    -0.86900
O1693       O  0.94480837  0.50113429  0.09646213    -0.88500
O1694       O  0.55431169  0.50055995  0.09744302    -0.87300
O1695       O  0.59831177  0.99977807  0.05197940    -0.86900
O1696       O  0.90653355  0.00195236  0.05861394    -0.88300
O1697       O  0.50228321  0.94460393  0.09685618    -0.86700
O1698       O  0.49720133  0.55500496  0.09612130    -0.86300
Zr1699     Zr  0.50217147  0.00004693  0.06907850     2.84300
O1700       O  0.53404506  0.96473653  0.03394856    -1.08300
O1701       O  0.96698831  0.53519728  0.03451644    -1.09000
C1702       C  0.49672723  0.58587020  0.08607298     1.06400
C1703       C  0.49910805  0.91385293  0.08670502     1.06300
C1704       C  0.91404580  0.50151765  0.08619338     1.09300
C1705       C  0.58548434  0.49853917  0.08748331     1.07100
H1706       H  0.95172226  0.95383779  0.05037741     0.32700
O1707       O  0.96591933  0.96745064  0.03582760    -1.29300
H1708       H  0.54922937  0.54709604  0.04938558     0.32300
O1709       O  0.53510251  0.53345669  0.03522227    -1.30900
O1710       O  0.49228416  0.90464031  0.44255692    -0.86700
O1711       O  0.50291144  0.59433782  0.44439789    -0.88200
O1712       O  0.90217973  0.94776600  0.50094464    -0.86800
O1713       O  0.59378717  0.93833897  0.50037020    -0.86800
O1714       O  0.60094340  0.54792225  0.50093483    -0.86500
O1715       O  0.90759645  0.55630797  0.49939924    -0.86300
O1716       O  0.94593236  0.00138249  0.40337178    -0.86700
O1717       O  0.55639687  0.99876449  0.40276495    -0.86200
O1718       O  0.90528351  0.99951395  0.44527978    -0.87200
O1719       O  0.59759738  0.99464824  0.44324158    -0.86400
O1720       O  0.94154923  0.90537069  0.49846941    -0.86800
O1721       O  0.94992625  0.59558466  0.49930170    -0.86500
O1722       O  0.56161340  0.59044291  0.49746046    -0.86200
O1723       O  0.55092146  0.89964487  0.49797680    -0.86600
O1724       O  0.49521235  0.94595119  0.40195513    -0.86900
O1725       O  0.50295255  0.55355381  0.40342108    -0.88200
Zr1726     Zr  0.49793454  0.93079746  0.49840002     2.83100
Zr1727     Zr  0.50481883  0.56636266  0.49921981     2.83500
Zr1728     Zr  0.93323665  0.00084006  0.50023634     2.84100
Zr1729     Zr  0.56952469  0.99530024  0.49825542     2.83400
Zr1730     Zr  0.50095444  0.99949902  0.43070153     2.84200
O1731       O  0.53903464  0.53104723  0.46587601    -1.08800
O1732       O  0.96571379  0.96656949  0.46495271    -1.08300
C1733       C  0.49226316  0.91509769  0.41150117     1.06400
C1734       C  0.50211890  0.58443967  0.41328227     1.09000
C1735       C  0.91081315  0.91646827  0.49955295     1.06500
C1736       C  0.58232021  0.90793402  0.49963418     1.06900
C1737       C  0.59223394  0.57913656  0.49899292     1.06500
C1738       C  0.91844728  0.58681862  0.49966149     1.06000
C1739       C  0.91493407  0.00030176  0.41388865     1.06500
C1740       C  0.58747404  0.99692758  0.41237354     1.06000
H1741       H  0.95637589  0.54795353  0.45088232     0.32700
O1742       O  0.97004665  0.53372478  0.46505026    -1.29900
H1743       H  0.54707710  0.94867267  0.44934866     0.32700
O1744       O  0.53390066  0.96316824  0.46378859    -1.31300
N1745       N  0.75420202  0.49278535  0.30152476    -0.36800
N1746       N  0.70053922  0.49915361  0.25083014    -0.57400
N1747       N  0.74984977  0.49603094  0.19825010    -0.36800
N1748       N  0.80344776  0.49190527  0.24894494    -0.57400
C1749       C  0.72771561  0.50328981  0.32049559     0.26800
C1750       C  0.78241639  0.49871338  0.31959489     0.26800
C1751       C  0.72252865  0.50639888  0.18075987     0.26800
C1752       C  0.77733346  0.50435220  0.17973950     0.26800
C1753       C  0.68229729  0.49265214  0.27900956     0.35400
C1754       C  0.68002897  0.49315476  0.22442326     0.35400
C1755       C  0.82389048  0.48417202  0.27502894     0.35400
C1756       C  0.82144197  0.48621070  0.22041631     0.35400
C1757       C  0.73906201  0.51572237  0.35112374    -0.22100
C1758       C  0.77368236  0.51290334  0.35052022    -0.22100
C1759       C  0.73273551  0.52142699  0.15069345    -0.22100
C1760       C  0.76747172  0.52014796  0.15003415    -0.22100
C1761       C  0.65000288  0.48248778  0.27058667    -0.23200
C1762       C  0.64866653  0.48250163  0.23583403    -0.23200
C1763       C  0.85501814  0.47327626  0.26305681    -0.23200
C1764       C  0.85347634  0.47454461  0.22832930    -0.23200
C1765       C  0.69353310  0.49895378  0.31207301    -0.18500
C1766       C  0.81562949  0.49030086  0.30927554    -0.18500
C1767       C  0.81076547  0.49540396  0.18775365    -0.18500
C1768       C  0.68873652  0.50040005  0.19053083    -0.18500
H1769       H  0.72391081  0.52543481  0.37189998     0.14400
H1770       H  0.79046320  0.52022522  0.37064975     0.14400
H1771       H  0.71681262  0.53188588  0.13117639     0.14400
H1772       H  0.78361159  0.52929290  0.12976177     0.14400
H1773       H  0.62942201  0.47629036  0.28770450     0.12700
H1774       H  0.62687552  0.47634929  0.22077365     0.12700
H1775       H  0.87678915  0.46608944  0.27778107     0.12700
H1776       H  0.87393657  0.46861969  0.21092696     0.12700
H1777       H  0.75257639  0.47876098  0.27938817     0.25900
H1778       H  0.74975947  0.48040901  0.21941252     0.25900
N1779       N  0.74723193  0.79939722  0.49937573    -0.36800
N1780       N  0.80266886  0.75136052  0.49878124    -0.57400
N1781       N  0.75382579  0.69652313  0.50226259    -0.36800
N1782       N  0.69852282  0.74442599  0.49936727    -0.57400
C1783       C  0.77348230  0.82041958  0.49341625     0.26800
C1784       C  0.71839213  0.81668706  0.49341381     0.26800
C1785       C  0.78260059  0.67948129  0.49502918     0.26800
C1786       C  0.72772796  0.67576566  0.49563520     0.26800
C1787       C  0.82047805  0.77983000  0.50371258     0.35400
C1788       C  0.82384451  0.72542906  0.50513292     0.35400
C1789       C  0.67677494  0.77039865  0.50317794     0.35400
C1790       C  0.68044864  0.71615101  0.50468270     0.35400
C1791       C  0.76112753  0.85161012  0.48395096    -0.22100
C1792       C  0.72644280  0.84927925  0.48397337    -0.22100
C1793       C  0.77463877  0.64750257  0.48382009    -0.22100
C1794       C  0.74003917  0.64511186  0.48438605    -0.22100
C1795       C  0.85324585  0.77191384  0.51291024    -0.23200
C1796       C  0.85531669  0.73748009  0.51400669    -0.23200
C1797       C  0.64463927  0.75850869  0.51044497    -0.23200
C1798       C  0.64698972  0.72415155  0.51148496    -0.23200
C1799       C  0.80815143  0.81282363  0.49823837    -0.18500
C1800       C  0.68499407  0.80460995  0.49830089    -0.18500
C1801       C  0.69314553  0.68317093  0.50094946    -0.18500
C1802       C  0.81586222  0.69111276  0.50045113    -0.18500
H1803       H  0.77557373  0.87390197  0.47805021     0.14400
H1804       H  0.70912939  0.86948662  0.47808763     0.14400
H1805       H  0.79197126  0.62775211  0.47630183     0.14400
H1806       H  0.72559948  0.62323385  0.47738957     0.14400
H1807       H  0.87359942  0.78913687  0.51812441     0.12700
H1808       H  0.87760244  0.72297139  0.52009129     0.12700
H1809       H  0.62178050  0.77303750  0.51425241     0.12700
H1810       H  0.62632841  0.70701301  0.51621024     0.12700
H1811       H  0.74873359  0.77586287  0.51045918     0.25900
H1812       H  0.75224309  0.71941075  0.51472681     0.25900
C1813       C  0.84016781  0.85794189  0.52779480    -0.09400
C1814       C  0.83305002  0.84093060  0.49764043     0.06800
C1815       C  0.85089379  0.84968923  0.46783779    -0.03100
C1816       C  0.87582061  0.87466732  0.46870941    -0.07600
C1817       C  0.88338013  0.89124884  0.49907376     0.05900
C1818       C  0.86517600  0.88273497  0.52870498    -0.02600
Br1819     Br  0.84450701  0.93486302  0.05143831    -0.02300
H1820       H  0.80989434  0.87130546  0.04461473     0.09800
H1821       H  0.88953654  0.88096629  0.44568596     0.07900
Br1822     Br  0.84222006  0.82773953  0.42564593    -0.02700
C1823       C  0.89320699  0.63901053  0.47550729    -0.09400
C1824       C  0.89265013  0.61382832  0.50046418     0.06800
C1825       C  0.86402782  0.61479810  0.02894598    -0.03100
C1826       C  0.83954393  0.64025463  0.02924077    -0.07600
C1827       C  0.84354854  0.66560214  0.50078716     0.05900
C1828       C  0.86832515  0.66416556  0.47495504    -0.02600
Br1829     Br  0.86712398  0.69425429  0.43702498    -0.02300
H1830       H  0.91217257  0.63827794  0.45557630     0.09800
H1831       H  0.81963899  0.63978799  0.04827799     0.07900
Br1832     Br  0.86036015  0.58022513  0.06268848    -0.02700
C1833       C  0.64144182  0.84524142  0.03763573    -0.09400
C1834       C  0.65696157  0.82956468  0.49849993     0.06800
C1835       C  0.64150464  0.84005348  0.46829488    -0.03100
C1836       C  0.61709204  0.86556281  0.46916742    -0.07600
C1837       C  0.60716065  0.88028485  0.49996315     0.05900
C1838       C  0.61602547  0.86972391  0.03619190    -0.02600
Br1839     Br  0.59255926  0.88177419  0.07718650    -0.02300
H1840       H  0.64820641  0.83453497  0.06189305     0.09800
H1841       H  0.60571545  0.87386138  0.44575867     0.07900
Br1842     Br  0.65267648  0.81981548  0.42557019    -0.02700
C1843       C  0.64461277  0.60485152  0.02115753    -0.09400
C1844       C  0.61946312  0.60415132  0.49867888     0.06800
C1845       C  0.62621027  0.62357753  0.46960699    -0.03100
C1846       C  0.65065995  0.64878610  0.47061198    -0.07600
C1847       C  0.66857453  0.65505376  0.50039511     0.05900
C1848       C  0.66927411  0.63001985  0.02316555    -0.02600
Br1849     Br  0.70592710  0.62312224  0.05398791    -0.02300
H1850       H  0.64693393  0.58272951  0.03696859     0.09800
H1851       H  0.65553844  0.66379659  0.44819596     0.07900
Br1852     Br  0.60307522  0.61597242  0.42785545    -0.02700
C1853       C  0.86774025  0.51661354  0.33223336    -0.09400
C1854       C  0.84314022  0.49141924  0.33474697     0.06800
C1855       C  0.83779203  0.97241141  0.36582647    -0.03100
C1856       C  0.86331258  0.97438350  0.39007529    -0.07600
C1857       C  0.88827793  0.99929239  0.38796362     0.05900
C1858       C  0.89281690  0.51978868  0.35679567    -0.02600
Br1859     Br  0.92413975  0.55617163  0.35204877    -0.02300
H1860       H  0.86701819  0.53427889  0.31134992     0.09800
H1861       H  0.86380019  0.95625135  0.41056258     0.07900
Br1862     Br  0.80447823  0.93786513  0.37063414    -0.02700
C1863       C  0.62182840  0.52593015  0.36966054    -0.09400
C1864       C  0.61366825  0.99946778  0.38598546     0.06800
C1865       C  0.63577476  0.97275476  0.37832580    -0.03100
C1866       C  0.66043057  0.97681418  0.35314062    -0.07600
C1867       C  0.66831987  0.49970096  0.33963174     0.05900
C1868       C  0.64626182  0.52706639  0.34400237    -0.02600
Br1869     Br  0.64894503  0.56633246  0.31587622    -0.02300
H1870       H  0.60592411  0.54747799  0.37409316     0.09800
H1871       H  0.67723877  0.95611706  0.34705829     0.07900
Br1872     Br  0.63335582  0.93037960  0.40115078    -0.02700
C1873       C  0.60919923  0.52137504  0.14089904    -0.09400
C1874       C  0.61194368  0.49871300  0.11373941     0.06800
C1875       C  0.64493332  0.98322118  0.10780448    -0.03100
C1876       C  0.66919928  0.98565691  0.13309424    -0.07600
C1877       C  0.66208474  0.50085386  0.16418275     0.05900
C1878       C  0.63438260  0.52318313  0.16551498    -0.02600
Br1879     Br  0.63095157  0.55788413  0.19908231    -0.02300
H1880       H  0.58797543  0.53856830  0.14232757     0.09800
H1881       H  0.69001727  0.96794252  0.13328086     0.07900
Br1882     Br  0.65163081  0.94929270  0.07397450    -0.02700
C1883       C  0.87696796  0.96871209  0.12373187    -0.09400
C1884       C  0.88775025  0.50060467  0.11208972     0.06800
C1885       C  0.88513819  0.52573923  0.13690407    -0.03100
C1886       C  0.85930972  0.52406163  0.16100888    -0.07600
C1887       C  0.83649036  0.49730613  0.16084453     0.05900
C1888       C  0.85102674  0.96654781  0.14775060    -0.02600
Br1889     Br  0.82932055  0.92412857  0.15491147    -0.02300
H1890       H  0.88526331  0.94630432  0.11054407     0.09800
H1891       H  0.85716381  0.54340251  0.18017873     0.07900
Br1892     Br  0.91582934  0.56284470  0.13863450    -0.02700
C1893       C  0.51603303  0.63618613  0.33373326    -0.09400
C1894       C  0.49256752  0.66223553  0.33842938     0.06800
C1895       C  0.97153471  0.66193868  0.36745320    -0.03100
C1896       C  0.97545748  0.63673177  0.39186170    -0.07600
C1897       C  0.49901912  0.61066716  0.38706383     0.05900
C1898       C  0.51864818  0.61010013  0.35712915    -0.02600
Br1899     Br  0.54962567  0.57476633  0.34652833    -0.02300
H1900       H  0.53209705  0.63588949  0.31134109     0.09800
H1901       H  0.95939069  0.63694269  0.41422434     0.07900
Br1902     Br  0.93603648  0.69420482  0.37393322    -0.02700
C1903       C  0.96236738  0.86754748  0.38371682    -0.09400
C1904       C  0.48996708  0.88958877  0.38457405     0.06800
C1905       C  0.51559085  0.88669693  0.35972946    -0.03100
C1906       C  0.51471465  0.86057484  0.33616376    -0.07600
C1907       C  0.48772253  0.83792871  0.33586090     0.05900
C1908       C  0.96071024  0.84237390  0.35896021    -0.02600
Br1909     Br  0.92046203  0.81597569  0.35597565    -0.02300
H1910       H  0.94184094  0.87034327  0.40186517     0.09800
H1911       H  0.53506598  0.85802279  0.31778799     0.07900
Br1912     Br  0.55269409  0.91742954  0.35734783    -0.02700
C1913       C  0.97131414  0.83698117  0.13676327    -0.09400
C1914       C  0.49653477  0.83494726  0.16132240     0.06800
C1915       C  0.52287657  0.85853814  0.16094544    -0.03100
C1916       C  0.52284629  0.88473464  0.13721374    -0.07600
C1917       C  0.49756324  0.88695817  0.11261393     0.05900
C1918       C  0.97185842  0.86243746  0.11226053    -0.02600
Br1919     Br  0.93603744  0.86325183  0.07982676    -0.02300
H1920       H  0.95100864  0.81883814  0.13684591     0.09800
H1921       H  0.54314524  0.90286334  0.13736676     0.05800
Br1922     Br  0.56000860  0.85475957  0.19156824    -0.02700
C1923       C  0.97596192  0.66483807  0.13559405    -0.09400
C1924       C  0.49757982  0.66119560  0.16331846     0.06800
C1925       C  0.51874532  0.63275352  0.16519958    -0.03100
C1926       C  0.51700971  0.60804130  0.14033311    -0.07600
C1927       C  0.49567169  0.61181793  0.11246885     0.05900
C1928       C  0.97517735  0.64072283  0.10997937    -0.02600
Br1929     Br  0.94474863  0.64824622  0.07314090    -0.02300
H1930       H  0.95960724  0.68662384  0.13390671     0.09800
H1931       H  0.53341747  0.58629672  0.14211206     0.07900
Br1932     Br  0.55190299  0.62722214  0.19989463    -0.02700
N1933       N  0.50174390  0.74889082  0.69882361    -0.36800
N1934       N  0.50246325  0.69760955  0.75036069    -0.57400
N1935       N  0.49249169  0.74913045  0.80211376    -0.36800
N1936       N  0.49413318  0.80030906  0.75044488    -0.57400
C1937       C  0.51256535  0.72202534  0.68072357     0.26800
C1938       C  0.51042318  0.77675397  0.68114306     0.26800
C1939       C  0.50260770  0.72263187  0.82091791     0.26800
C1940       C  0.49750045  0.77705365  0.82085715     0.26800
C1941       C  0.49924114  0.67776695  0.72284234     0.35400
C1942       C  0.49617342  0.67805373  0.77765280     0.35400
C1943       C  0.48872540  0.81880929  0.72230748     0.35400
C1944       C  0.48275330  0.81869553  0.77697157     0.35400
C1945       C  0.52836245  0.73284554  0.65122037    -0.22100
C1946       C  0.52724632  0.76740858  0.65158714    -0.22100
C1947       C  0.51401623  0.73372865  0.85202795    -0.22100
C1948       C  0.51114812  0.76814417  0.85185198    -0.22100
C1949       C  0.49085640  0.64542413  0.73273305    -0.23200
C1950       C  0.48914624  0.64555968  0.76753928    -0.23200
C1951       C  0.47327294  0.84894217  0.73091697    -0.23200
C1952       C  0.46961590  0.84892021  0.76562000    -0.23200
C1953       C  0.50654063  0.68805867  0.68924960    -0.18500
C1954       C  0.50074912  0.81004931  0.68961137    -0.18500
C1955       C  0.48808222  0.81000883  0.81127482    -0.18500
C1956       C  0.49951094  0.68861759  0.81154144    -0.18500
H1957       H  0.53933550  0.71741002  0.63140342     0.14400
H1958       H  0.53707468  0.78376643  0.63195029     0.14400
H1959       H  0.52327123  0.71857761  0.87276518     0.14400
H1960       H  0.51783241  0.78463860  0.87245409     0.14400
H1961       H  0.48713680  0.62382214  0.71664199     0.12700
H1962       H  0.48378306  0.62413317  0.78358010     0.12700
H1963       H  0.46632732  0.86923256  0.71408196     0.12700
H1964       H  0.45934141  0.86917441  0.78082244     0.12700
H1965       H  0.48558996  0.74807937  0.71975691     0.25900
H1966       H  0.47935617  0.74783956  0.77944489     0.25900
O1967       O  0.50456146  0.59529655  0.55343762    -0.86700
O1968       O  0.49873271  0.90319628  0.55348673    -0.86900
O1969       O  0.94834558  0.50226479  0.59637674    -0.88500
O1970       O  0.55773275  0.49551629  0.59617298    -0.87300
O1971       O  0.59895820  0.99521489  0.55228990    -0.86900
O1972       O  0.90775503  0.00310935  0.55623385    -0.88300
O1973       O  0.50264261  0.94334861  0.59489171    -0.86700
O1974       O  0.50488200  0.55493461  0.59507150    -0.86300
Zr1975     Zr  0.50283398  0.99863019  0.56769293     2.84300
O1976       O  0.53408888  0.96273665  0.53244131    -1.08300
O1977       O  0.96941709  0.53363413  0.53343348    -1.09000
C1978       C  0.50480569  0.58583330  0.58472473     1.06400
C1979       C  0.50064545  0.91254882  0.58471852     1.06300
C1980       C  0.91755653  0.50235464  0.58621486     1.09300
C1981       C  0.58889572  0.49260387  0.58623438     1.07100
H1982       H  0.95194527  0.95239828  0.54881357     0.32700
O1983       O  0.96637619  0.96587207  0.53433884    -1.29300
H1984       H  0.55253683  0.54493656  0.54791458     0.32300
O1985       O  0.53798656  0.53156290  0.53392108    -1.30900
O1986       O  0.49521874  0.90404517  0.94555929    -0.86700
O1987       O  0.50354733  0.59633182  0.94591681    -0.88200
O1988       O  0.90168073  0.94923925  0.00354411    -0.86800
O1989       O  0.59362780  0.94199821  0.00150053    -0.86800
O1990       O  0.59828358  0.55145573  0.00102525    -0.86500
O1991       O  0.90581700  0.55812989  0.00301159    -0.86300
O1992       O  0.94530304  0.99951156  0.90539182    -0.86700
O1993       O  0.55568948  0.99683056  0.90359154    -0.86200
O1994       O  0.90425011  0.99982029  0.94708527    -0.87200
O1995       O  0.59652629  0.99555543  0.94434324    -0.86400
O1996       O  0.94137649  0.90722196  0.00195358    -0.86800
O1997       O  0.94778316  0.59768739  0.00109772    -0.86500
O1998       O  0.55845648  0.59348955  0.00058447    -0.86200
O1999       O  0.55140248  0.90250689  0.00244085    -0.86600
O2000       O  0.49723964  0.94476599  0.90440608    -0.86900
O2001       O  0.50558875  0.55565840  0.90469770    -0.88200
Zr2002     Zr  0.49780041  0.93223491  0.00059670     2.83100
Zr2003     Zr  0.50222728  0.56813559  0.00044153     2.83500
Zr2004     Zr  0.93212275  0.00218541  0.00207038     2.84100
Zr2005     Zr  0.56824423  0.99807542  0.99894884     2.83400
Zr2006     Zr  0.50029643  0.99960847  0.93192607     2.84200
O2007       O  0.53633638  0.53321620  0.96667522    -1.08800
O2008       O  0.96488297  0.96735213  0.96696933    -1.08300
C2009       C  0.49556140  0.91385579  0.91427583     1.06400
C2010       C  0.50510484  0.58652015  0.91483021     1.09000
C2011       C  0.91053810  0.91804891  0.00331634     1.06500
C2012       C  0.58263747  0.91149432  0.00279945     1.06900
C2013       C  0.58934191  0.58276762  0.00044994     1.06500
C2014       C  0.91644366  0.58869675  0.00295926     1.06000
C2015       C  0.91432629  0.99941693  0.91580903     1.06500
C2016       C  0.58680395  0.99534540  0.91330755     1.06000
H2017       H  0.95406616  0.55032476  0.95159471     0.32700
O2018       O  0.96749661  0.53586395  0.96577924    -1.29900
H2019       H  0.54681871  0.94978630  0.95160773     0.32700
O2020       O  0.53333763  0.96443204  0.96562501    -1.31300
N2021       N  0.75369008  0.49642009  0.80205082    -0.36800
N2022       N  0.70211613  0.49150737  0.75100994    -0.57400
N2023       N  0.75347185  0.49265144  0.69878493    -0.36800
N2024       N  0.80522147  0.50004403  0.75000417    -0.57400
C2025       C  0.72569743  0.50413044  0.82039265     0.26800
C2026       C  0.78062026  0.50651433  0.82007247     0.26800
C2027       C  0.72525555  0.49865716  0.68062013     0.26800
C2028       C  0.78006951  0.50343567  0.68003918     0.26800
C2029       C  0.68389404  0.48402624  0.77904430     0.35400
C2030       C  0.68404806  0.48087482  0.72432014     0.35400
C2031       C  0.82516477  0.49539692  0.77711768     0.35400
C2032       C  0.82499891  0.49500566  0.72248119     0.35400
C2033       C  0.73500541  0.51954735  0.85036902    -0.22100
C2034       C  0.76976108  0.52077114  0.85028667    -0.22100
C2035       C  0.73414350  0.51348511  0.64997760    -0.22100
C2036       C  0.76879909  0.51619351  0.64948940    -0.22100
C2037       C  0.65423467  0.46801369  0.77023077    -0.23200
C2038       C  0.65443099  0.46582993  0.73544181    -0.23200
C2039       C  0.85781929  0.48755558  0.76681688    -0.23200
C2040       C  0.85774191  0.48742048  0.73205450    -0.23200
C2041       C  0.69240459  0.49473415  0.81192795    -0.18500
C2042       C  0.81467875  0.50081011  0.81085395    -0.18500
C2043       C  0.81431484  0.49977977  0.68894527    -0.18500
C2044       C  0.69207191  0.48916652  0.69040524    -0.18500
H2045       H  0.71853152  0.52831875  0.87055398     0.14400
H2046       H  0.78529371  0.53072406  0.87028329     0.14400
H2047       H  0.71747596  0.52131126  0.62988307     0.14400
H2048       H  0.78399352  0.52633555  0.62897658     0.14400
H2049       H  0.63416808  0.45967688  0.78701736     0.12700
H2050       H  0.63444627  0.45572025  0.72004540     0.12700
H2051       H  0.87951939  0.48298829  0.78264217     0.12700
H2052       H  0.87935733  0.48269542  0.71572021     0.12700
H2053       H  0.75465396  0.48125071  0.78063246     0.25900
H2054       H  0.75490400  0.47850876  0.72092604     0.25900
N2055       N  0.74764763  0.80209283  0.01192090    -0.36800
N2056       N  0.80150044  0.75238053  0.00845357    -0.57400
N2057       N  0.75182502  0.69957687  0.00713852    -0.36800
N2058       N  0.69791402  0.74873506  0.00904774    -0.57400
C2059       C  0.77453276  0.82165869  0.00401206     0.26800
C2060       C  0.71939745  0.81997406  0.00493175     0.26800
C2061       C  0.78012368  0.68300440  0.99730408     0.26800
C2062       C  0.72523293  0.68119166  0.99680820     0.26800
C2063       C  0.81958467  0.77995067  0.01612378     0.35400
C2064       C  0.82173829  0.72562753  0.01419844     0.35400
C2065       C  0.67711009  0.77495193  0.01567716     0.35400
C2066       C  0.67955129  0.72049328  0.01365468     0.35400
C2067       C  0.76316753  0.85239354  0.99206418    -0.22100
C2068       C  0.72851026  0.85157678  0.99326088    -0.22100
C2069       C  0.77149223  0.65399596  0.98020288    -0.22100
C2070       C  0.73676963  0.65299575  0.97961494    -0.22100
C2071       C  0.85139363  0.77062528  0.02725425    -0.23200
C2072       C  0.85281769  0.73615390  0.02583305    -0.23200
C2073       C  0.64525473  0.76331301  0.02449652    -0.23200
C2074       C  0.64691945  0.72884078  0.02364056    -0.23200
C2075       C  0.80894840  0.81321786  0.00930696    -0.18500
C2076       C  0.68568702  0.80901573  0.01022414    -0.18500
C2077       C  0.69110538  0.68771009  0.00544194    -0.18500
C2078       C  0.81334132  0.69228787  0.00573455    -0.18500
H2079       H  0.77819811  0.87350030  0.98367472     0.14400
H2080       H  0.71205030  0.87209293  0.98622842     0.14400
H2081       H  0.78845854  0.63529730  0.96966599     0.14400
H2082       H  0.72171095  0.63325757  0.96866867     0.14400
H2083       H  0.87181574  0.78699522  0.03450943     0.12700
H2084       H  0.87449391  0.72069646  0.03178172     0.12700
H2085       H  0.62290920  0.77800983  0.03024822     0.12700
H2086       H  0.62614293  0.71196727  0.02876066     0.12700
H2087       H  0.74847814  0.77920817  0.02457351     0.25900
H2088       H  0.75077116  0.71974276  0.02386638     0.25900
C2089       C  0.83131477  0.86910696  0.02744988    -0.09400
C2090       C  0.83490203  0.84040151  0.00708125     0.06800
C2091       C  0.86253778  0.83858850  0.98423121    -0.03100
C2092       C  0.88700957  0.86379821  0.98397764    -0.07600
C2093       C  0.88348328  0.89242465  0.00438128     0.05900
C2094       C  0.85445758  0.89551198  0.02530713    -0.02600
Br2095     Br  0.87524750  0.90246756  0.57151496    -0.02300
H2096       H  0.82683582  0.85123038  0.55091861     0.09800
H2097       H  0.90843038  0.86153581  0.96682441     0.07900
Br2098     Br  0.86711415  0.80359104  0.95111281    -0.02700
C2099       C  0.89115947  0.64129112  0.98047100    -0.09400
C2100       C  0.89047815  0.61544171  0.00465133     0.06800
C2101       C  0.86667889  0.61433151  0.52521807    -0.03100
C2102       C  0.84314413  0.64057412  0.52581462    -0.07600
C2103       C  0.84024798  0.66604422  0.00499539     0.05900
C2104       C  0.86581315  0.66588819  0.97992294    -0.02600
Br2105     Br  0.86529310  0.69688925  0.94274853    -0.02300
H2106       H  0.91066167  0.64150548  0.96101626     0.09800
H2107       H  0.82360247  0.64083968  0.54523322     0.07900
Br2108     Br  0.86146032  0.57958119  0.55841940    -0.02700
C2109       C  0.64584624  0.84309994  0.52946630    -0.09400
C2110       C  0.65796518  0.83430486  0.00795813     0.06800
C2111       C  0.64823225  0.84789675  0.97647148    -0.03100
C2112       C  0.62369380  0.87316263  0.97525574    -0.07600
C2113       C  0.60788601  0.88457236  0.00494975     0.05900
C2114       C  0.62059951  0.86780467  0.53043309    -0.02600
Br2115     Br  0.60390778  0.88220999  0.57384027    -0.02300
H2116       H  0.65669904  0.83420629  0.55292857     0.09800
H2117       H  0.61663173  0.88367601  0.95100830     0.07900
Br2118     Br  0.66771533  0.83276559  0.93445953    -0.02700
C2119       C  0.63802061  0.60973723  0.52823088    -0.09400
C2120       C  0.61647107  0.60856489  0.00000114     0.06800
C2121       C  0.61431960  0.63754314  0.97943470    -0.03100
C2122       C  0.63908518  0.66238496  0.98112790    -0.07600
C2123       C  0.66622475  0.65956918  0.00347865     0.05900
C2124       C  0.66231849  0.63517678  0.52932719    -0.02600
Br2125     Br  0.68525875  0.64302747  0.57112863    -0.02300
H2126       H  0.63290734  0.59493551  0.55075154     0.09800
H2127       H  0.63699268  0.68432767  0.96502599     0.07900
Br2128     Br  0.57895537  0.64435578  0.94738980    -0.02700
C2129       C  0.86346347  0.52780596  0.83913994    -0.09400
C2130       C  0.84053921  0.50112707  0.83765253     0.06800
C2131       C  0.84278958  0.97045053  0.86100025    -0.03100
C2132       C  0.86635847  0.97193087  0.88712253    -0.07600
C2133       C  0.88849319  0.99920298  0.88944762     0.05900
C2134       C  0.88866222  0.52819066  0.86363579    -0.02600
Br2135     Br  0.91959072  0.56511278  0.86396177    -0.02300
H2136       H  0.86189279  0.54815965  0.82098840     0.09800
H2137       H  0.86805057  0.95139018  0.90505638     0.07900
Br2138     Br  0.81530681  0.93116449  0.85692320    -0.02700
C2139       C  0.61059503  0.51224305  0.85999215    -0.09400
C2140       C  0.61355214  0.99476913  0.88689218     0.06800
C2141       C  0.64378930  0.97614927  0.89044896    -0.03100
C2142       C  0.66880884  0.97792727  0.86528956    -0.07600
C2143       C  0.66571822  0.49518209  0.83875651     0.05900
C2144       C  0.63605861  0.51451137  0.83546211    -0.02600
Br2145     Br  0.62985286  0.54633895  0.79953217    -0.02300
H2146       H  0.58756909  0.52638646  0.85642423     0.09800
H2147       H  0.69128792  0.96254223  0.86758257     0.07900
Br2148     Br  0.65245322  0.94715018  0.92825753    -0.02700
C2149       C  0.61043174  0.50833963  0.64310617    -0.09400
C2150       C  0.61536340  0.49053684  0.61274452     0.06800
C2151       C  0.64788367  0.98083977  0.60639459    -0.03100
C2152       C  0.67164941  0.98219704  0.63245571    -0.07600
C2153       C  0.66478197  0.48923684  0.66443420     0.05900
C2154       C  0.63512928  0.50875205  0.66822426    -0.02600
Br2155     Br  0.62818979  0.53904226  0.70542316    -0.02300
H2156       H  0.58787983  0.52344713  0.64667743     0.09800
H2157       H  0.69493230  0.96802582  0.62986616     0.07900
Br2158     Br  0.65993086  0.95466942  0.56725639    -0.02700
C2159       C  0.86335458  0.98462010  0.60933668    -0.09400
C2160       C  0.89144035  0.50241620  0.61244820     0.06800
C2161       C  0.88641647  0.53023890  0.63378385    -0.03100
C2162       C  0.86051709  0.52949174  0.65807888    -0.07600
C2163       C  0.84031856  0.50083874  0.66188324     0.05900
C2164       C  0.83840378  0.98294899  0.63421850    -0.02600
Br2165     Br  0.80335364  0.95025581  0.62879206    -0.02300
H2166       H  0.86099906  0.96926703  0.58698749     0.09800
H2167       H  0.85640578  0.55100262  0.67436753     0.07900
Br2168     Br  0.91442387  0.56938541  0.63064905    -0.02700
C2169       C  0.53051753  0.64363437  0.84220574    -0.09400
C2170       C  0.50100231  0.66275500  0.83849492     0.06800
C2171       C  0.97335218  0.65711429  0.86037126    -0.03100
C2172       C  0.97557998  0.63269322  0.88568782    -0.07600
C2173       C  0.50472356  0.61293998  0.88884937     0.05900
C2174       C  0.53250917  0.61876297  0.86713943    -0.02600
Br2175     Br  0.57415655  0.59477972  0.87163590    -0.02300
H2176       H  0.55202376  0.64814239  0.82565432     0.09800
H2177       H  0.95410974  0.62843756  0.90237194     0.07900
Br2178     Br  0.93151440  0.68089977  0.85534888    -0.02700
C2179       C  0.97122185  0.86054572  0.89208764    -0.09400
C2180       C  0.49350970  0.88765816  0.88763024     0.06800
C2181       C  0.51305445  0.88935122  0.85752268    -0.03100
C2182       C  0.51037980  0.86420081  0.83304514    -0.07600
C2183       C  0.48811738  0.83718412  0.83739360     0.05900
C2184       C  0.96804445  0.83572124  0.86715094    -0.02600
Br2185     Br  0.93533701  0.80093043  0.87459370    -0.02300
H2186       H  0.95569977  0.85900362  0.91480035     0.09800
H2187       H  0.52633019  0.86541158  0.81060673     0.07900
Br2188     Br  0.54569468  0.92396746  0.84909873    -0.02700
C2189       C  0.98236471  0.83195178  0.63352559    -0.09400
C2190       C  0.50191448  0.83635467  0.66259479     0.06800
C2191       C  0.52152483  0.86571266  0.66553637    -0.03100
C2192       C  0.52062130  0.89016141  0.64001844    -0.07600
C2193       C  0.50083846  0.88586152  0.61098603     0.05900
C2194       C  0.98175102  0.85612574  0.60781353    -0.02600
Br2195     Br  0.95252008  0.84757089  0.57027909    -0.02300
H2196       H  0.96704552  0.80963983  0.63104379     0.09800
H2197       H  0.53585157  0.91250814  0.64270978     0.05800
Br2198     Br  0.55054288  0.87350612  0.70338320    -0.02700
C2199       C  0.98275732  0.66347264  0.63653048    -0.09400
C2200       C  0.50750827  0.66243274  0.66168091     0.06800
C2201       C  0.53238311  0.63706000  0.66025178    -0.03100
C2202       C  0.53069159  0.61194653  0.63548170    -0.07600
C2203       C  0.50546841  0.61258475  0.61073145     0.05900
C2204       C  0.98197932  0.63932247  0.61079289    -0.02600
Br2205     Br  0.94776139  0.64379452  0.57693319    -0.02300
H2206       H  0.96388565  0.68322482  0.63696745     0.09800
H2207       H  0.54971294  0.59233571  0.63496909     0.07900
Br2208     Br  0.57011222  0.63687519  0.69032530    -0.02700
loop_ 
_geom_bond_atom_site_label_1 
_geom_bond_atom_site_label_2 
_geom_bond_distance 
_geom_bond_site_symmetry_2 
_ccdc_geom_bond_type 
N1            C6   1.354       .  A
N1            C5   1.355       .  A
N1           H33   1.041   1_455  S
N2            C9   1.350   1_455  A
N2           C10   1.350   1_455  A
N3            C8   1.347       .  A
N3            C7   1.348       .  A
N3           H34   1.042   1_455  S
N4           C11   1.347   1_455  A
N4           C12   1.348   1_455  A
C5           C13   1.387       .  A
C5           C21   1.419   1_455  A
C6           C22   1.417       .  A
C6           C14   1.386       .  A
C7           C15   1.388       .  A
C7           C24   1.409       .  A
C8           C23   1.405       .  A
C8           C16   1.386       .  A
C9           C21   1.413       .  A
C9           C17   1.386       .  A
C10          C24   1.413   1_655  A
C10          C18   1.386       .  A
C11          C19   1.387       .  A
C11          C22   1.410   1_655  A
C12          C20   1.385       .  A
C12          C23   1.406   1_655  A
C13          C14   1.382       .  A
C13          H25   1.082       .  S
C14          H26   1.082       .  S
C15          C16   1.379       .  A
C15          H27   1.082       .  S
C16          H28   1.083       .  S
C17          C18   1.376       .  A
C17          H29   1.082       .  S
C18          H30   1.082       .  S
C19          C20   1.374       .  A
C19          H31   1.082       .  S
C20          H32   1.082       .  S
C21         C268   1.498       .  S
C22         C258   1.487       .  S
C23         C251   1.474       .  S
C24         C238   1.487       .  S
O35          C46   1.293       .  A
O35        Zr347   2.444   1_655  S
O36          C47   1.294       .  A
O36        Zr346   2.448       .  S
O37          C48   1.288       .  A
O37       Zr1699   2.419       .  S
O38          C49   1.295       .  A
O38        Zr595   2.457       .  S
O39         C601   1.290       .  A
O39        Zr349   2.432       .  S
O40         C600   1.289       .  A
O40        Zr348   2.423       .  S
O41          C47   1.292   1_455  A
O41         Zr43   2.438   1_455  S
O42          C46   1.295   1_455  A
O42        Zr595   2.451       .  S
Zr43       O1693   2.419       .  S
Zr43        O590   2.451   1_655  S
Zr43        O594   2.434       .  S
Zr43         O44   2.329   1_655  S
Zr43       O1701   2.340       .  S
Zr43        O605   2.338   1_655  S
Zr43       O1155   2.355       .  S
O44        Zr346   2.349   1_455  S
O44        Zr349   2.338       .  S
O45       Zr1699   2.352       .  S
O45       Zr1451   2.337       .  S
O45        Zr900   2.341       .  S
C46         C271   1.486       .  S
C47         C261   1.478       .  S
C48         C228   1.455   1_545  S
C48         O592   1.292       .  A
C49         C218   1.475       .  S
C49         O591   1.288   1_545  A
H50          O51   0.967       .  S
O51       Zr1147   2.355       .  S
O51       Zr1450   2.330       .  S
O51        Zr348   2.343       .  S
H52          O53   0.965       .  S
O53        Zr595   2.337       .  S
O53        Zr347   2.344       .  S
O53        Zr901   2.342   1_544  S
O54          C77   1.290   1_655  A
O54         Zr70   2.428       .  S
O55          C78   1.293       .  A
O55         Zr71   2.440       .  S
O56          C79   1.293       .  A
O56         Zr72   2.452       .  S
O57          C80   1.294       .  A
O57         Zr73   2.455       .  S
O58          C81   1.295       .  A
O58        Zr625   2.455   1_545  S
O59          C82   1.291       .  A
O59        Zr624   2.434       .  S
O60          C83   1.292       .  A
O60       Zr1178   2.438       .  S
O61          C84   1.294       .  A
O61         Zr74   2.451       .  S
O62          C83   1.296       .  A
O62         Zr72   2.457       .  S
O63          C84   1.287       .  A
O63         Zr73   2.416       .  S
O64          C79   1.296       .  A
O64       Zr1174   2.461       .  S
O65          C82   1.294       .  A
O65       Zr1175   2.452       .  S
O66          C81   1.291       .  A
O66         Zr71   2.435       .  S
O67          C80   1.289       .  A
O67         Zr70   2.430   1_455  S
O68          C77   1.291       .  A
O68         Zr74   2.432       .  S
O69          C78   1.291       .  A
O69        Zr626   2.436   1_545  S
Zr70        O312   2.435       .  S
Zr70       O1168   2.461       .  S
Zr70         O88   2.350   1_655  S
Zr70        O320   2.351   1_655  S
Zr70       O1431   2.333       .  S
Zr70       O1180   2.331       .  S
Zr71        O311   2.441       .  S
Zr71       O1169   2.452   1_455  S
Zr71         O75   2.347       .  S
Zr71       O1425   2.333   1_455  S
Zr71        O329   2.349       .  S
Zr71       O1190   2.341   1_455  S
Zr72        O316   2.442       .  S
Zr72        O611   2.435       .  S
Zr72         O76   2.332       .  S
Zr72        O873   2.351       .  S
Zr72        O327   2.341       .  S
Zr72        O638   2.339       .  S
Zr73        O315   2.431       .  S
Zr73        O610   2.441       .  S
Zr73         O88   2.338       .  S
Zr73        O320   2.333       .  S
Zr73        O881   2.342       .  S
Zr73        O627   2.353       .  S
Zr74       O1164   2.438   1_455  S
Zr74        O621   2.439       .  S
Zr74         O88   2.342       .  S
Zr74        O627   2.335       .  S
Zr74       O1180   2.347   1_455  S
Zr74       O1742   2.340   1_455  S
O75        Zr625   2.353   1_545  S
O75        Zr626   2.340   1_545  S
O76       Zr1174   2.331       .  S
O76       Zr1178   2.347       .  S
C77         C248   1.464       .  S
C78         C241   1.480       .  S
C79         C161   1.498       .  S
C80         C181   1.468       .  S
C81         C188   1.470       .  S
C82         C168   1.476       .  S
C83         C201   1.479       .  S
C84         C208   1.466       .  S
H85          O86   0.965       .  S
O86       Zr1175   2.341       .  S
O86        Zr624   2.345       .  S
O86       Zr1730   2.343   1_545  S
H87          O88   0.961       .  S
N89          C94   1.354       .  A
N89          C93   1.349       .  A
N89         H121   1.040   1_545  S
N90          C97   1.349       .  A
N90          C98   1.352       .  A
N91          C96   1.349       .  A
N91          C95   1.353       .  A
N91         H122   1.040   1_545  S
N92          C99   1.350       .  A
N92         C100   1.346       .  A
C93         C101   1.386       .  A
C93         C109   1.409       .  A
C94         C110   1.414   1_545  A
C94         C102   1.387       .  A
C95         C103   1.385       .  A
C95         C112   1.412       .  A
C96         C111   1.414   1_545  A
C96         C104   1.390       .  A
C97         C109   1.409       .  A
C97         C105   1.386   1_545  A
C98         C112   1.411       .  A
C98         C106   1.386   1_545  A
C99         C107   1.385       .  A
C99         C110   1.410       .  A
C100        C108   1.388       .  A
C100        C111   1.409       .  A
C101        C102   1.377       .  A
C101        H113   1.082       .  S
C102        H114   1.082       .  S
C103        C104   1.375       .  A
C103        H115   1.082       .  S
C104        H116   1.082       .  S
C105        C106   1.373       .  A
C105        H117   1.082       .  S
C106        H118   1.082       .  S
C107        C108   1.374       .  A
C107        H119   1.082       .  S
C108        H120   1.082       .  S
C109        C211   1.475       .  S
C110        C198   1.490       .  S
C111        C231   1.471       .  S
C112        C221   1.491       .  S
N123        C128   1.355       .  A
N123        C127   1.358       .  A
N123        H155   1.038       .  S
N124        C131   1.356       .  A
N124        C132   1.354       .  A
N125        C130   1.356       .  A
N125        C129   1.353       .  A
N125        H156   1.038       .  S
N126        C133   1.351       .  A
N126        C134   1.353       .  A
C127        C135   1.387       .  A
C127        C143   1.424       .  A
C128        C144   1.422       .  A
C128        C136   1.388       .  A
C129        C137   1.389       .  A
C129        C146   1.419       .  A
C130        C145   1.416       .  A
C130        C138   1.386       .  A
C131        C143   1.423       .  A
C131        C139   1.387       .  A
C132        C146   1.419       .  A
C132        C140   1.386       .  A
C133        C141   1.389       .  A
C133        C144   1.416       .  A
C134        C142   1.385       .  A
C134        C145   1.412       .  A
C135        C136   1.378       .  A
C135        H147   1.082       .  S
C136        H148   1.082       .  S
C137        C138   1.375       .  A
C137        H149   1.082       .  S
C138        H150   1.082       .  S
C139        C140   1.375       .  A
C139        H151   1.082       .  S
C140        H152   1.082       .  S
C141        C142   1.372       .  A
C141        H153   1.082       .  S
C142        H154   1.083       .  S
C143        C158   1.511       .  S
C144        C178   1.488       .  S
C145        C191   1.489       .  S
C146        C171   1.493       .  S
C157        C158   1.407       .  A
C157        C162   1.405       .  A
C157        H440   1.083       .  S
C158        C159   1.414       .  A
C159        C160   1.407       .  A
C159       Br166   1.919       .  S
C160        C161   1.408       .  A
C160        H165   1.083       .  S
C161        C162   1.415       .  A
C162       Br439   1.918       .  S
Br163       C438   1.916       .  S
H164        C433   1.083       .  S
C167        C168   1.402       .  A
C167        C172   1.400       .  A
C167        H174   1.084       .  S
C168        C445   1.410       .  A
C169        C170   1.400       .  A
C169        C444   1.414       .  A
C169       Br176   1.919       .  S
C170        C447   1.404   1_554  A
C170        H175   1.084       .  S
C171        C172   1.411       .  A
C171        C446   1.405       .  A
C172       Br173   1.919       .  S
C177        C182   1.401       .  A
C177        C454   1.406       .  A
C177        H184   1.083       .  S
C178        C179   1.409       .  A
C178        C453   1.406       .  A
C179        C180   1.399       .  A
C179       Br186   1.918       .  S
C180        C181   1.401       .  A
C180        H185   1.083       .  S
C181        C458   1.405       .  A
C182        C457   1.407       .  A
C182       Br183   1.920       .  S
C187        C192   1.403       .  A
C187        C464   1.406   1_554  A
C187        H194   1.084       .  S
C188        C189   1.405       .  A
C188        C463   1.404       .  A
C189        C190   1.400       .  A
C189       Br196   1.920       .  S
C190        C191   1.404       .  A
C190        H195   1.083       .  S
C191        C468   1.409       .  A
C192        C467   1.411   1_554  A
C192       Br193   1.919       .  S
C197        C198   1.404   1_545  A
C197        C202   1.400       .  A
C197        H204   1.084       .  S
C198        C751   1.409       .  A
C199        C200   1.400       .  A
C199        C750   1.409       .  A
C199       Br206   1.919       .  S
C200        C201   1.404       .  A
C200        H205   1.084       .  S
C201        C754   1.412       .  A
C202        C753   1.410   1_545  A
C202       Br203   1.920       .  S
C207        C212   1.395       .  A
C207        C760   1.401   1_545  A
C207        H214   1.080       .  S
C208        C209   1.408       .  A
C208        C759   1.400       .  A
C209        C210   1.392       .  A
C209       Br216   1.911       .  S
C210        C763   1.398       .  A
C210        H215   1.084       .  S
C211        C212   1.405       .  A
C211        C762   1.401   1_545  A
C212       Br213   1.918       .  S
C217        C218   1.404       .  A
C217        C222   1.400       .  A
C217        H224   1.084       .  S
C218        C771   1.411   1_545  A
C219        C220   1.396       .  A
C219        C770   1.414       .  A
C219       Br226   1.917       .  S
C220        C773   1.401       .  A
C220        H225   1.084       .  S
C221        C222   1.411       .  A
C221        C772   1.403   1_545  A
C222       Br223   1.920       .  S
C227        C232   1.391       .  A
C227        C780   1.399       .  A
C227        H234   1.081       .  S
C228        C229   1.404   1_565  A
C228        C779   1.400       .  A
C229        C230   1.394       .  A
C229       Br236   1.918       .  S
C230        C231   1.402   1_545  A
C230        H235   1.084       .  S
C231        C784   1.404       .  A
C232        C783   1.404       .  A
C232       Br233   1.920       .  S
C237        C238   1.401       .  A
C237        C242   1.394       .  A
C237        H244   1.084       .  S
C238       C1343   1.411   1_455  A
C239        C240   1.398       .  A
C239       C1342   1.411       .  A
C239       Br246   1.921       .  S
C240       C1345   1.406       .  A
C240        H245   1.084       .  S
C241        C242   1.413       .  A
C241       C1344   1.406   1_455  A
C242       Br243   1.914       .  S
C247        C252   1.395       .  A
C247       C1352   1.402       .  A
C247        H254   1.084       .  S
C248        C249   1.409       .  A
C248       C1351   1.402   1_455  A
C249        C250   1.394       .  A
C249       Br256   1.918       .  S
C250        C251   1.400       .  A
C250        H255   1.084       .  S
C251       C1356   1.407   1_455  A
C252       C1355   1.407       .  A
C252       Br253   1.918       .  S
C257        C262   1.398       .  A
C257       C1362   1.401       .  A
C257        H264   1.083       .  S
C258        C259   1.411       .  A
C258       C1361   1.401   1_455  A
C259        C260   1.401       .  A
C259       Br266   1.920       .  S
C260        C261   1.405   1_455  A
C260        H265   1.084       .  S
C261       C1366   1.409       .  A
C262       C1365   1.409       .  A
C262       Br263   1.919       .  S
C267        C272   1.404       .  A
C267       C1372   1.405       .  A
C267        H274   1.083       .  S
C268        C269   1.413   1_655  A
C268       C1371   1.405       .  A
C269        C270   1.401       .  A
C269       Br276   1.920       .  S
C270        C271   1.404   1_455  A
C270        H275   1.084       .  S
C271       C1376   1.414       .  A
C272       C1375   1.414       .  A
C272       Br273   1.921       .  S
N277        C282   1.354   1_655  A
N277        C281   1.355   1_655  A
N277        H309   1.040       .  S
N278        C285   1.354       .  A
N278        C286   1.353       .  A
N279        C284   1.354       .  A
N279        C283   1.353       .  A
N279        H310   1.038       .  S
N280        C287   1.350       .  A
N280        C288   1.351       .  A
C281        C289   1.387       .  A
C281        C297   1.420       .  A
C282        C298   1.416   1_455  A
C282        C290   1.386       .  A
C283        C291   1.387   1_655  A
C283        C300   1.417       .  A
C284        C299   1.417       .  A
C284        C292   1.387   1_655  A
C285        C297   1.419   1_655  A
C285        C293   1.386       .  A
C286        C300   1.416       .  A
C286        C294   1.386       .  A
C287        C295   1.387       .  A
C287        C298   1.413       .  A
C288        C296   1.386       .  A
C288        C299   1.412       .  A
C289        C290   1.378       .  A
C289        H301   1.082       .  S
C290        H302   1.082       .  S
C291        C292   1.377       .  A
C291        H303   1.082       .  S
C292        H304   1.082       .  S
C293        C294   1.374       .  A
C293        H305   1.082       .  S
C294        H306   1.083       .  S
C295        C296   1.373       .  A
C295        H307   1.082       .  S
C296        H308   1.082       .  S
C297        C544   1.503       .  S
C298        C534   1.486   1_655  S
C299        C527   1.487       .  S
C300        C514   1.488       .  S
O311        C322   1.292       .  A
O312        C323   1.291       .  A
O313        C324   1.289       .  A
O313      Zr1975   2.420   1_545  S
O314        C325   1.296       .  A
O314       Zr871   2.457       .  S
O315        C877   1.289       .  A
O316        C876   1.293       .  A
O317        C323   1.294   1_455  A
O317       Zr319   2.445       .  S
O318        C322   1.298       .  A
O318       Zr871   2.469   1_545  S
Zr319      O1969   2.413   1_455  S
Zr319       O866   2.460       .  S
Zr319       O870   2.464       .  S
Zr319       O320   2.335       .  S
Zr319      O1977   2.348   1_455  S
Zr319       O881   2.329       .  S
Zr319      O1431   2.364   1_455  S
O321      Zr1975   2.343   1_545  S
O321      Zr1175   2.333       .  S
O321       Zr624   2.344       .  S
C322        C547   1.492       .  S
C323        C537   1.471       .  S
C324        C504   1.461       .  S
C324        O868   1.290       .  A
C325        C494   1.492       .  S
C325        O867   1.291       .  A
H326        O327   0.967       .  S
O327      Zr1423   2.364       .  S
O327      Zr1174   2.333       .  S
H328        O329   0.965       .  S
O329       Zr871   2.327   1_545  S
O329       Zr625   2.346   1_545  S
O330        C353   1.293       .  A
O330       Zr346   2.445   1_556  S
O331        C354   1.289   1_655  A
O331       Zr347   2.427   1_656  S
O332        C355   1.290       .  A
O332       Zr348   2.437   1_556  S
O333        C356   1.294       .  A
O333       Zr349   2.450       .  S
O334        C357   1.295       .  A
O334       Zr901   2.453   1_545  S
O335        C358   1.294       .  A
O335       Zr900   2.454       .  S
O336        C359   1.291       .  A
O336      Zr1454   2.434       .  S
O337        C360   1.293       .  A
O337       Zr350   2.440       .  S
O338        C359   1.290       .  A
O338       Zr348   2.430   1_556  S
O339        C360   1.290       .  A
O339       Zr349   2.429   1_556  S
O340        C355   1.296       .  A
O340      Zr1450   2.460   1_556  S
O341        C358   1.293   1_556  A
O341      Zr1451   2.448   1_556  S
O342        C357   1.293       .  A
O342       Zr347   2.442   1_556  S
O343        C356   1.289       .  A
O343       Zr346   2.424   1_455  S
O344        C353   1.293       .  A
O344       Zr350   2.442   1_655  S
O345        C354   1.295       .  A
O345       Zr902   2.453   1_545  S
Zr346      O1444   2.460   1_554  S
Zr346      O1155   2.330       .  S
Zr346      O1456   2.329   1_554  S
Zr346       O364   2.351   1_654  S
Zr347      O1445   2.448   1_454  S
Zr347      O1149   2.337   1_455  S
Zr347       O351   2.351   1_554  S
Zr347      O1466   2.339   1_454  S
Zr348       O887   2.433       .  S
Zr348       O597   2.336       .  S
Zr348       O352   2.328   1_554  S
Zr348       O914   2.345   1_554  S
Zr349       O886   2.460       .  S
Zr349       O605   2.342       .  S
Zr349       O903   2.344   1_554  S
Zr349       O364   2.348   1_554  S
Zr350      O1440   2.434   1_455  S
Zr350       O897   2.452       .  S
Zr350       O903   2.337       .  S
Zr350      O1456   2.341   1_455  S
Zr350       O364   2.341       .  S
Zr350      O2018   2.346   1_455  S
O351       Zr901   2.342   1_545  S
O351       Zr902   2.338   1_545  S
O352      Zr1450   2.329   1_556  S
O352      Zr1454   2.341       .  S
C353        C524   1.472       .  S
C354        C517   1.470   1_455  S
C355        C437   1.492       .  S
C356        C457   1.464       .  S
C357        C464   1.483       .  S
C358        C444   1.491       .  S
C359        C477   1.464       .  S
C360        C484   1.478       .  S
H361        O362   0.965       .  S
O362      Zr1451   2.339   1_556  S
O362       Zr900   2.338   1_556  S
O362      Zr2006   2.350   1_545  S
H363        O364   0.961       .  S
N365        C370   1.351   1_565  A
N365        C369   1.350   1_565  A
N365        H397   1.040       .  S
N366        C373   1.349   1_545  A
N366        C374   1.352   1_545  A
N367        C372   1.349       .  A
N367        C371   1.353       .  A
N367        H398   1.041   1_545  S
N368        C375   1.348       .  A
N368        C376   1.345       .  A
C369        C377   1.388       .  A
C369        C385   1.414       .  A
C370        C386   1.411   1_545  A
C370        C378   1.386       .  A
C371        C379   1.385       .  A
C371        C388   1.413       .  A
C372        C387   1.413       .  A
C372        C380   1.388       .  A
C373        C385   1.412   1_565  A
C373        C381   1.387       .  A
C374        C388   1.412   1_565  A
C374        C382   1.384       .  A
C375        C383   1.385       .  A
C375        C386   1.406       .  A
C376        C384   1.389       .  A
C376        C387   1.408   1_565  A
C377        C378   1.378       .  A
C377        H389   1.082       .  S
C378        H390   1.083       .  S
C379        C380   1.378       .  A
C379        H391   1.082       .  S
C380        H392   1.082       .  S
C381        C382   1.375       .  A
C381        H393   1.082       .  S
C382        H394   1.082       .  S
C383        C384   1.373       .  A
C383        H395   1.083       .  S
C384        H396   1.082       .  S
C385        C487   1.487   1_545  S
C386        C474   1.479       .  S
C387        C507   1.476       .  S
C388        C497   1.499       .  S
N399        C404   1.355       .  A
N399        C403   1.357       .  A
N399        H431   1.039   1_556  S
N400        C407   1.351   1_556  A
N400        C408   1.352   1_556  A
N401        C406   1.353       .  A
N401        C405   1.353       .  A
N401        H432   1.041   1_556  S
N402        C409   1.352   1_556  A
N402        C410   1.352   1_556  A
C403        C411   1.388       .  A
C403        C419   1.425       .  A
C404        C420   1.420   1_556  A
C404        C412   1.387       .  A
C405        C413   1.386       .  A
C405        C422   1.415       .  A
C406        C421   1.415       .  A
C406        C414   1.387       .  A
C407        C419   1.416   1_554  A
C407        C415   1.387       .  A
C408        C422   1.413   1_554  A
C408        C416   1.385       .  A
C409        C417   1.386       .  A
C409        C420   1.414       .  A
C410        C418   1.387       .  A
C410        C421   1.416   1_554  A
C411        C412   1.376       .  A
C411        H423   1.082       .  S
C412        H424   1.082       .  S
C413        C414   1.378       .  A
C413        H425   1.082       .  S
C414        H426   1.082       .  S
C415        C416   1.377       .  A
C415        H427   1.082       .  S
C416        H428   1.082       .  S
C417        C418   1.372       .  A
C417        H429   1.082       .  S
C418        H430   1.082       .  S
C419        C434   1.505       .  S
C420        C454   1.488       .  S
C421        C467   1.493       .  S
C422        C447   1.498       .  S
C433        C434   1.404   1_554  A
C433        C438   1.399       .  A
C434        C435   1.417       .  A
C435        C436   1.403       .  A
C435       Br442   1.922       .  S
C436        C437   1.406       .  A
C436        H441   1.084       .  S
C437        C438   1.415   1_556  A
C443        C444   1.409   1_556  A
C443        C448   1.406       .  A
C443        H450   1.084       .  S
C445        C446   1.400       .  A
C445       Br452   1.920       .  S
C446        H451   1.084       .  S
C447        C448   1.411       .  A
C448       Br449   1.920       .  S
C453        C458   1.400       .  A
C453        H460   1.083       .  S
C454        C455   1.409   1_554  A
C455        C456   1.396       .  A
C455       Br462   1.916       .  S
C456        C457   1.399   1_556  A
C456        H461   1.084       .  S
C458       Br459   1.919       .  S
C463        C468   1.403       .  A
C463        H470   1.084       .  S
C464        C465   1.412       .  A
C465        C466   1.397       .  A
C465       Br472   1.915       .  S
C466        C467   1.402       .  A
C466        H471   1.084       .  S
C468       Br469   1.918       .  S
C473        C474   1.400   1_545  A
C473        C478   1.395       .  A
C473        H480   1.084       .  S
C474       C1027   1.407       .  A
C475       C1026   1.408       .  A
C475        C476   1.397       .  A
C475       Br482   1.919       .  S
C476        C477   1.402       .  A
C476        H481   1.084       .  S
C477       C1030   1.407       .  A
C478       C1029   1.408   1_545  A
C478       Br479   1.918       .  S
C483       C1036   1.401   1_545  A
C483        C488   1.395       .  A
C483        H490   1.079       .  S
C484       C1035   1.402       .  A
C484        C485   1.414       .  A
C485        C486   1.399       .  A
C485       Br492   1.920       .  S
C486       C1039   1.403       .  A
C486        H491   1.084       .  S
C487       C1038   1.403       .  A
C487        C488   1.409   1_565  A
C488       Br489   1.921       .  S
C493        C494   1.407   1_545  A
C493        C498   1.402       .  A
C493        H500   1.084       .  S
C494       C1047   1.417       .  A
C495       C1046   1.418       .  A
C495        C496   1.400       .  A
C495       Br502   1.920       .  S
C496       C1049   1.403       .  A
C496        H501   1.084       .  S
C497       C1048   1.405   1_545  A
C497        C498   1.412       .  A
C498       Br499   1.920       .  S
C503       C1056   1.398       .  A
C503        C508   1.393       .  A
C503        H510   1.083       .  S
C504       C1055   1.399   1_545  A
C504        C505   1.408       .  A
C505        C506   1.395       .  A
C505       Br512   1.921       .  S
C506        C507   1.405       .  A
C506        H511   1.084       .  S
C507       C1060   1.406   1_545  A
C508       C1059   1.406       .  A
C508       Br509   1.918       .  S
C513        C514   1.403   1_455  A
C513        C518   1.398       .  A
C513        H520   1.083       .  S
C514       C1619   1.409       .  A
C515       C1618   1.409       .  A
C515        C516   1.400       .  A
C515       Br522   1.916       .  S
C516       C1621   1.403       .  A
C516        H521   1.084       .  S
C517       C1620   1.403       .  A
C517        C518   1.405   1_655  A
C518       Br519   1.911       .  S
C523       C1628   1.404       .  A
C523        C528   1.402       .  A
C523        H530   1.084       .  S
C524       C1627   1.404       .  A
C524        C525   1.408   1_655  A
C525        C526   1.400       .  A
C525       Br532   1.920       .  S
C526        C527   1.403   1_455  A
C526        H531   1.083       .  S
C527       C1632   1.408       .  A
C528       C1631   1.408       .  A
C528       Br529   1.918       .  S
C533       C1638   1.403       .  A
C533        C538   1.400       .  A
C533        H540   1.083       .  S
C534       C1637   1.403   1_455  A
C534        C535   1.409       .  A
C535        C536   1.398       .  A
C535       Br542   1.917       .  S
C536        C537   1.402   1_455  A
C536        H541   1.084       .  S
C537       C1642   1.410       .  A
C538       C1641   1.410       .  A
C538       Br539   1.921       .  S
C543       C1648   1.405       .  A
C543        C548   1.403       .  A
C543        H550   1.084       .  S
C544       C1647   1.405   1_455  A
C544        C545   1.413       .  A
C545        C546   1.405       .  A
C545       Br552   1.919       .  S
C546        C547   1.406       .  A
C546        H551   1.083       .  S
C547       C1652   1.416   1_455  A
C548       C1651   1.416       .  A
C548       Br549   1.920       .  S
N553        C558   1.351   1_655  A
N553        C557   1.351   1_655  A
N553        H585   1.041       .  S
N554        C561   1.350       .  A
N554        C562   1.349       .  A
N555        C560   1.353       .  A
N555        C559   1.353       .  A
N555        H586   1.041       .  S
N556        C563   1.351       .  A
N556        C564   1.350       .  A
C557        C565   1.388       .  A
C557        C573   1.413   1_455  A
C558        C574   1.412   1_455  A
C558        C566   1.386       .  A
C559        C567   1.388   1_655  A
C559        C576   1.416       .  A
C560        C575   1.415       .  A
C560        C568   1.387   1_655  A
C561        C573   1.411       .  A
C561        C569   1.387       .  A
C562        C576   1.412       .  A
C562        C570   1.387       .  A
C563        C571   1.386       .  A
C563        C574   1.411       .  A
C564        C572   1.385       .  A
C564        C575   1.410       .  A
C565        C566   1.378       .  A
C565        H577   1.082       .  S
C566        H578   1.082       .  S
C567        C568   1.380       .  A
C567        H579   1.082       .  S
C568        H580   1.082       .  S
C569        C570   1.373       .  A
C569        H581   1.082       .  S
C570        H582   1.082       .  S
C571        C572   1.374       .  A
C571        H583   1.082       .  S
C572        H584   1.082       .  S
C573        C820   1.486       .  S
C574        C810   1.486       .  S
C575        C803   1.488       .  S
C576        C790   1.489       .  S
O587        C598   1.289       .  A
O587       Zr899   2.425   1_655  S
O588        C599   1.291       .  A
O588       Zr898   2.432       .  S
O589        C600   1.288       .  A
O589      Zr1147   2.419       .  S
O590        C601   1.294       .  A
O591       Zr901   2.420   1_554  S
O592       Zr900   2.442       .  S
O593        C599   1.297   1_455  A
O593       Zr595   2.465   1_565  S
O594        C598   1.292       .  A
Zr595      O1141   2.420   1_455  S
Zr595       O596   2.335   1_545  S
Zr595      O1149   2.352   1_455  S
Zr595      O1707   2.352   1_445  S
O596       Zr898   2.352   1_455  S
O596       Zr901   2.340   1_554  S
O597      Zr1147   2.340       .  S
O597      Zr2003   2.334       .  S
C598        C823   1.469       .  S
C599        C813   1.481       .  S
C600        C780   1.452       .  S
C601        C770   1.481       .  S
H602        O603   0.967       .  S
O603      Zr1699   2.352   1_565  S
O603      Zr2002   2.335       .  S
O603       Zr900   2.345   1_565  S
H604        O605   0.965       .  S
O605       Zr899   2.347       .  S
O606        C629   1.294       .  A
O606       Zr622   2.452       .  S
O607        C630   1.291       .  A
O607       Zr623   2.434       .  S
O608        C631   1.293       .  A
O608       Zr624   2.451   1_565  S
O609        C632   1.296       .  A
O609       Zr625   2.464       .  S
O610        C633   1.292       .  A
O611        C634   1.291       .  A
O612        C635   1.293       .  A
O612      Zr1730   2.443   1_545  S
O613        C636   1.294       .  A
O613       Zr626   2.447       .  S
O614        C635   1.293   1_565  A
O614       Zr624   2.446   1_565  S
O615        C636   1.289       .  A
O615       Zr625   2.429       .  S
O616        C631   1.294       .  A
O616      Zr1726   2.456       .  S
O617        C634   1.296       .  A
O617      Zr1727   2.463       .  S
O618        C633   1.294       .  A
O618       Zr623   2.449       .  S
O619        C632   1.290       .  A
O619       Zr622   2.434   1_455  S
O620        C629   1.291       .  A
O620       Zr626   2.431   1_655  S
O621        C630   1.292       .  A
Zr622       O864   2.435       .  S
Zr622      O1720   2.456       .  S
Zr622       O872   2.353   1_655  S
Zr622      O1983   2.342       .  S
Zr622      O1732   2.328       .  S
Zr622       O640   2.351   1_655  S
Zr623       O863   2.432       .  S
Zr623      O1721   2.463   1_455  S
Zr623      O1977   2.337   1_455  S
Zr623       O881   2.354       .  S
Zr623       O627   2.346       .  S
Zr623      O1742   2.338   1_455  S
Zr624       O868   2.422       .  S
Zr624       O879   2.344   1_545  S
Zr624       O628   2.327   1_545  S
Zr625       O867   2.441       .  S
Zr625       O872   2.333       .  S
Zr625       O640   2.354       .  S
Zr626      O1716   2.443   1_465  S
Zr626      O1732   2.338   1_455  S
Zr626       O640   2.349       .  S
Zr626      O1190   2.343   1_465  S
O628      Zr1726   2.328       .  S
O628      Zr1730   2.338       .  S
C629        C800   1.476       .  S
C630        C793   1.475   1_455  S
C631        C713   1.483       .  S
C632        C733   1.475       .  S
C633        C740   1.471       .  S
C634        C720   1.482       .  S
C635        C753   1.479   1_545  S
C636        C760   1.466       .  S
H637        O638   0.965       .  S
O638      Zr1727   2.338       .  S
O638      Zr1178   2.340       .  S
H639        O640   0.961       .  S
N641        C646   1.354       .  A
N641        C645   1.348       .  A
N641        H673   1.041       .  S
N642        C649   1.345       .  A
N642        C650   1.350       .  A
N643        C648   1.347       .  A
N643        C647   1.353       .  A
N643        H674   1.041       .  S
N644        C651   1.351       .  A
N644        C652   1.345       .  A
C645        C653   1.387       .  A
C645        C661   1.409       .  A
C646        C662   1.412       .  A
C646        C654   1.386       .  A
C647        C655   1.386       .  A
C647        C664   1.410       .  A
C648        C663   1.409       .  A
C648        C656   1.389       .  A
C649        C661   1.406       .  A
C649        C657   1.387       .  A
C650        C664   1.408       .  A
C650        C658   1.385       .  A
C651        C659   1.384       .  A
C651        C662   1.409       .  A
C652        C660   1.388       .  A
C652        C663   1.408       .  A
C653        C654   1.375       .  A
C653        H665   1.082       .  S
C654        H666   1.082       .  S
C655        C656   1.377       .  A
C655        H667   1.083       .  S
C656        H668   1.083       .  S
C657        C658   1.373       .  A
C657        H669   1.082       .  S
C658        H670   1.082       .  S
C659        C660   1.373       .  A
C659        H671   1.082       .  S
C660        H672   1.083       .  S
C661        C763   1.469       .  S
C662        C750   1.491       .  S
C663        C783   1.466       .  S
C664        C773   1.489       .  S
N675        C680   1.354       .  A
N675        C679   1.356       .  A
N675        H707   1.036       .  S
N676        C683   1.354       .  A
N676        C684   1.353       .  A
N677        C682   1.354       .  A
N677        C681   1.353       .  A
N677        H708   1.038       .  S
N678        C685   1.352       .  A
N678        C686   1.352       .  A
C679        C687   1.386       .  A
C679        C695   1.420       .  A
C680        C696   1.421       .  A
C680        C688   1.388       .  A
C681        C689   1.388       .  A
C681        C698   1.417       .  A
C682        C697   1.414       .  A
C682        C690   1.386       .  A
C683        C695   1.418       .  A
C683        C691   1.386       .  A
C684        C698   1.418       .  A
C684        C692   1.386       .  A
C685        C693   1.387       .  A
C685        C696   1.415       .  A
C686        C694   1.386       .  A
C686        C697   1.413       .  A
C687        C688   1.377       .  A
C687        H699   1.082       .  S
C688        H700   1.082       .  S
C689        C690   1.374       .  A
C689        H701   1.082       .  S
C690        H702   1.082       .  S
C691        C692   1.375       .  A
C691        H703   1.082       .  S
C692        H704   1.082       .  S
C693        C694   1.373       .  A
C693        H705   1.082       .  S
C694        H706   1.083       .  S
C695        C710   1.495       .  S
C696        C730   1.488       .  S
C697        C743   1.487       .  S
C698        C723   1.493       .  S
C709        C710   1.402       .  A
C709        C714   1.403       .  A
C709        H992   1.083       .  S
C710        C711   1.410       .  A
C711        C712   1.406       .  A
C711       Br718   1.917       .  S
C712        C713   1.405       .  A
C712        H717   1.083       .  S
C713        C714   1.409       .  A
C714       Br991   1.911       .  S
Br715       C990   1.916       .  S
H716        C985   1.084       .  S
C719        C720   1.405       .  A
C719        C724   1.404       .  A
C719        H726   1.082       .  S
C720        C997   1.411       .  A
C721        C996   1.413       .  A
C721        C722   1.401       .  A
C721       Br728   1.920       .  S
C722        C999   1.403       .  A
C722        H727   1.084       .  S
C723        C998   1.403       .  A
C723        C724   1.409       .  A
C724       Br725   1.917       .  S
C729       C1006   1.405       .  A
C729        C734   1.401       .  A
C729        H736   1.083       .  S
C730       C1005   1.403       .  A
C730        C731   1.408       .  A
C731        C732   1.401       .  A
C731       Br738   1.917       .  S
C732        C733   1.403       .  A
C732        H737   1.083       .  S
C733       C1010   1.409       .  A
C734       C1009   1.407       .  A
C734       Br735   1.918       .  S
C739       C1016   1.407   1_554  A
C739        C744   1.406       .  A
C739        H746   1.083       .  S
C740       C1015   1.404       .  A
C740        C741   1.407       .  A
C741        C742   1.399       .  A
C741       Br748   1.919       .  S
C742        C743   1.403       .  A
C742        H747   1.083       .  S
C743       C1020   1.409       .  A
C744       C1019   1.415       .  A
C744       Br745   1.922       .  S
C749        C750   1.405       .  A
C749        C754   1.401       .  A
C749        H756   1.084       .  S
C751        C752   1.402       .  A
C751       Br758   1.919       .  S
C752        C753   1.406       .  A
C752        H757   1.084       .  S
C754       Br755   1.920       .  S
C759        C764   1.394       .  A
C759        H766   1.077       .  S
C760        C761   1.407       .  A
C761        C762   1.396       .  A
C761       Br768   1.915       .  S
C762        H767   1.084       .  S
C763        C764   1.405       .  A
C764       Br765   1.920       .  S
C769        C770   1.406       .  A
C769        C774   1.402       .  A
C769        H776   1.084       .  S
C771        C772   1.397       .  A
C771       Br778   1.918       .  S
C772        H777   1.084       .  S
C773        C774   1.411       .  A
C774       Br775   1.920       .  S
C779        C784   1.394       .  A
C779        H786   1.083       .  S
C780        C781   1.405       .  A
C781        C782   1.392       .  A
C781       Br788   1.920       .  S
C782        C783   1.401       .  A
C782        H787   1.084       .  S
C784       Br785   1.919       .  S
C789        C790   1.402   1_455  A
C789        C794   1.394       .  A
C789        H796   1.084       .  S
C790       C1895   1.410       .  A
C791       C1894   1.410       .  A
C791        C792   1.400       .  A
C791       Br798   1.917       .  S
C792       C1897   1.405       .  A
C792        H797   1.083       .  S
C793       C1896   1.405       .  A
C793        C794   1.408   1_655  A
C794       Br795   1.908       .  S
C799       C1904   1.405       .  A
C799        C804   1.404       .  A
C799        H806   1.084       .  S
C800       C1903   1.406       .  A
C800        C801   1.409   1_655  A
C801        C802   1.398       .  A
C801       Br808   1.918       .  S
C802        C803   1.402   1_455  A
C802        H807   1.083       .  S
C803       C1908   1.409       .  A
C804       C1907   1.409       .  A
C804       Br805   1.918       .  S
C809       C1914   1.401       .  A
C809        C814   1.401       .  A
C809        H816   1.084       .  S
C810       C1913   1.401       .  A
C810        C811   1.407   1_655  A
C811        C812   1.401       .  A
C811       Br818   1.919       .  S
C812        C813   1.404   1_455  A
C812        H817   1.083       .  S
C813       C1918   1.414       .  A
C814       C1917   1.414       .  A
C814       Br815   1.921       .  S
C819       C1924   1.404       .  A
C819        C824   1.397       .  A
C819        H826   1.084       .  S
C820       C1923   1.404       .  A
C820        C821   1.410   1_655  A
C821        C822   1.394       .  A
C821       Br828   1.919       .  S
C822        C823   1.401   1_455  A
C822        H827   1.084       .  S
C823       C1928   1.411       .  A
C824       C1927   1.411       .  A
C824       Br825   1.921       .  S
N829        C834   1.354       .  A
N829        C833   1.354       .  A
N829        H861   1.040   1_455  S
N830        C837   1.352   1_455  A
N830        C838   1.350   1_455  A
N831        C836   1.354       .  A
N831        C835   1.352   1_655  A
N831        H862   1.041       .  S
N832        C839   1.350       .  A
N832        C840   1.352       .  A
C833        C841   1.385       .  A
C833        C849   1.415       .  A
C834        C850   1.419       .  A
C834        C842   1.388       .  A
C835        C843   1.386       .  A
C835        C852   1.412   1_455  A
C836        C851   1.416       .  A
C836        C844   1.388   1_655  A
C837        C849   1.414   1_655  A
C837        C845   1.387       .  A
C838        C852   1.411       .  A
C838        C846   1.386       .  A
C839        C847   1.387       .  A
C839        C850   1.415   1_655  A
C840        C848   1.386       .  A
C840        C851   1.415       .  A
C841        C842   1.378       .  A
C841        H853   1.082       .  S
C842        H854   1.082       .  S
C843        C844   1.376       .  A
C843        H855   1.082       .  S
C844        H856   1.082       .  S
C845        C846   1.375       .  A
C845        H857   1.082       .  S
C846        H858   1.083       .  S
C847        C848   1.376       .  A
C847        H859   1.082       .  S
C848        H860   1.082       .  S
C849       C1096   1.494       .  S
C850       C1086   1.495       .  S
C851       C1079   1.497       .  S
C852       C1066   1.481   1_655  S
O863        C874   1.291       .  A
O864        C875   1.291   1_655  A
O865        C876   1.288       .  A
O865      Zr1423   2.413       .  S
O866        C877   1.296       .  A
O869        C875   1.295       .  A
O869       Zr871   2.449       .  S
O870        C874   1.297       .  A
Zr871      O1417   2.420   1_465  S
Zr871       O872   2.339       .  S
Zr871      O1425   2.343   1_465  S
Zr871      O1983   2.363   1_455  S
O873      Zr1423   2.348       .  S
O873      Zr1727   2.337       .  S
C874       C1099   1.482       .  S
C875       C1089   1.484       .  S
C876       C1056   1.456       .  S
C877       C1046   1.491       .  S
H878        O879   0.967       .  S
O879      Zr1975   2.363       .  S
O879      Zr1726   2.342       .  S
H880        O881   0.965       .  S
O882        C905   1.294       .  A
O882       Zr898   2.450   1_556  S
O883        C906   1.289       .  A
O883       Zr899   2.426   1_556  S
O884        C907   1.290       .  A
O884       Zr900   2.435   1_565  S
O885        C908   1.294       .  A
O885       Zr901   2.450   1_554  S
O886        C909   1.296       .  A
O887        C910   1.290       .  A
O888        C911   1.290       .  A
O888      Zr2006   2.426       .  S
O889        C912   1.296       .  A
O889       Zr902   2.455       .  S
O890        C911   1.293       .  A
O890       Zr900   2.447   1_566  S
O891        C912   1.288       .  A
O891       Zr901   2.421       .  S
O892        C907   1.295       .  A
O892      Zr2002   2.451       .  S
O893        C910   1.295       .  A
O893      Zr2003   2.453       .  S
O894        C909   1.294       .  A
O894       Zr899   2.449       .  S
O895        C908   1.290       .  A
O895       Zr898   2.429   1_455  S
O896        C905   1.293       .  A
O896       Zr902   2.446   1_655  S
O897        C906   1.294       .  A
Zr898      O1996   2.451       .  S
Zr898      O1707   2.336       .  S
Zr898      O2008   2.332   1_554  S
Zr898       O916   2.345   1_654  S
Zr899      O1997   2.453   1_455  S
Zr899      O1701   2.334   1_455  S
Zr899       O903   2.344   1_554  S
Zr899      O2018   2.340   1_454  S
Zr900       O904   2.342   1_544  S
Zr901       O916   2.345       .  S
Zr902      O1992   2.426   1_455  S
Zr902      O2008   2.345   1_455  S
Zr902       O916   2.337       .  S
Zr902      O1466   2.350   1_465  S
O904      Zr2002   2.332   1_556  S
O904      Zr2006   2.345       .  S
C905       C1076   1.486       .  S
C906       C1069   1.469       .  S
C907        C989   1.483       .  S
C908       C1009   1.467       .  S
C909       C1016   1.490   1_554  S
C910        C996   1.480       .  S
C911       C1029   1.467       .  S
C912       C1036   1.479       .  S
H913        O914   0.965       .  S
O914      Zr2003   2.340   1_556  S
O914      Zr1454   2.346       .  S
H915        O916   0.962       .  S
N917        C922   1.351       .  A
N917        C921   1.353       .  A
N917        H949   1.040       .  S
N918        C925   1.348       .  A
N918        C926   1.349       .  A
N919        C924   1.352       .  A
N919        C923   1.354       .  A
N919        H950   1.041       .  S
N920        C927   1.349       .  A
N920        C928   1.348       .  A
C921        C929   1.388       .  A
C921        C937   1.416       .  A
C922        C938   1.411       .  A
C922        C930   1.386       .  A
C923        C931   1.388       .  A
C923        C940   1.419       .  A
C924        C939   1.412       .  A
C924        C932   1.385       .  A
C925        C937   1.411       .  A
C925        C933   1.387       .  A
C926        C940   1.412       .  A
C926        C934   1.386       .  A
C927        C935   1.387       .  A
C927        C938   1.407       .  A
C928        C936   1.387       .  A
C928        C939   1.406       .  A
C929        C930   1.378       .  A
C929        H941   1.082       .  S
C930        H942   1.082       .  S
C931        C932   1.377       .  A
C931        H943   1.082       .  S
C932        H944   1.082       .  S
C933        C934   1.376       .  A
C933        H945   1.082       .  S
C934        H946   1.082       .  S
C935        C936   1.372       .  A
C935        H947   1.082       .  S
C936        H948   1.083       .  S
C937       C1039   1.489       .  S
C938       C1026   1.480       .  S
C939       C1059   1.477       .  S
C940       C1049   1.497       .  S
N951        C956   1.355       .  A
N951        C955   1.356       .  A
N951        H983   1.040       .  S
N952        C959   1.350       .  A
N952        C960   1.352       .  A
N953        C958   1.352   1_554  A
N953        C957   1.353   1_554  A
N953        H984   1.041       .  S
N954        C961   1.353       .  A
N954        C962   1.353       .  A
C955        C963   1.387   1_554  A
C955        C971   1.420       .  A
C956        C972   1.420       .  A
C956        C964   1.388   1_554  A
C957        C965   1.385       .  A
C957        C974   1.411   1_556  A
C958        C973   1.414   1_556  A
C958        C966   1.387       .  A
C959        C971   1.416       .  A
C959        C967   1.388       .  A
C960        C974   1.412       .  A
C960        C968   1.385       .  A
C961        C969   1.387       .  A
C961        C972   1.416       .  A
C962        C970   1.387       .  A
C962        C973   1.420       .  A
C963        C964   1.374       .  A
C963        H975   1.082       .  S
C964        H976   1.081       .  S
C965        C966   1.377       .  A
C965        H977   1.082       .  S
C966        H978   1.082       .  S
C967        C968   1.376       .  A
C967        H979   1.082       .  S
C968        H980   1.082       .  S
C969        C970   1.376       .  A
C969        H981   1.082       .  S
C970        H982   1.082       .  S
C971        C986   1.498       .  S
C972       C1006   1.491       .  S
C973       C1019   1.499       .  S
C974        C999   1.491       .  S
C985        C986   1.405       .  A
C985        C990   1.400       .  A
C986        C987   1.413   1_554  A
C987        C988   1.399       .  A
C987       Br994   1.920       .  S
C988        C989   1.403   1_556  A
C988        H993   1.084       .  S
C989        C990   1.414       .  A
C995        C996   1.403   1_556  A
C995       C1000   1.401       .  A
C995       H1002   1.084       .  S
C997        C998   1.399       .  A
C997      Br1004   1.915       .  S
C998       H1003   1.084       .  S
C999       C1000   1.409   1_554  A
C1000     Br1001   1.917       .  S
C1005      C1010   1.401       .  A
C1005      H1012   1.083       .  S
C1006      C1007   1.412   1_554  A
C1007      C1008   1.398       .  A
C1007     Br1014   1.919       .  S
C1008      C1009   1.399   1_556  A
C1008      H1013   1.083       .  S
C1010     Br1011   1.918       .  S
C1015      C1020   1.402       .  A
C1015      H1022   1.084       .  S
C1016      C1017   1.413       .  A
C1017      C1018   1.399       .  A
C1017     Br1024   1.915       .  S
C1018      C1019   1.402   1_556  A
C1018      H1023   1.084       .  S
C1020     Br1021   1.918       .  S
C1025      C1026   1.403       .  A
C1025      C1030   1.397       .  A
C1025      H1032   1.083       .  S
C1027      C1028   1.399       .  A
C1027     Br1034   1.918       .  S
C1028      C1029   1.403       .  A
C1028      H1033   1.084       .  S
C1030     Br1031   1.918       .  S
C1035      C1040   1.394       .  A
C1035      H1042   1.081       .  S
C1036      C1037   1.415       .  A
C1037      C1038   1.398       .  A
C1037     Br1044   1.919       .  S
C1038      H1043   1.084       .  S
C1039      C1040   1.409       .  A
C1040     Br1041   1.918       .  S
C1045      C1046   1.405       .  A
C1045      C1050   1.400       .  A
C1045      H1052   1.084       .  S
C1047      C1048   1.403       .  A
C1047     Br1054   1.920       .  S
C1048      H1053   1.084       .  S
C1049      C1050   1.413       .  A
C1050     Br1051   1.919       .  S
C1055      C1060   1.388       .  A
C1055      H1062   1.079       .  S
C1056      C1057   1.406       .  A
C1057      C1058   1.397       .  A
C1057     Br1064   1.921       .  S
C1058      C1059   1.404       .  A
C1058      H1063   1.083       .  S
C1060     Br1061   1.921       .  S
C1065      C1066   1.402       .  A
C1065      C1070   1.398       .  A
C1065      H1072   1.083       .  S
C1066      C2171   1.407   1_455  A
C1067      C2170   1.407       .  A
C1067      C1068   1.397       .  A
C1067     Br1074   1.918       .  S
C1068      C2173   1.402       .  A
C1068      H1073   1.084       .  S
C1069      C2172   1.402   1_455  A
C1069      C1070   1.408       .  A
C1070     Br1071   1.913       .  S
C1075      C2180   1.407       .  A
C1075      C1080   1.404       .  A
C1075      H1082   1.084       .  S
C1076      C2179   1.407       .  A
C1076      C1077   1.413   1_655  A
C1077      C1078   1.398       .  A
C1077     Br1084   1.921       .  S
C1078      C1079   1.404   1_455  A
C1078      H1083   1.084       .  S
C1079      C2184   1.413       .  A
C1080      C2183   1.413       .  A
C1080     Br1081   1.921       .  S
C1085      C2190   1.403       .  A
C1085      C1090   1.398       .  A
C1085      H1092   1.084       .  S
C1086      C2189   1.403   1_455  A
C1086      C1087   1.413       .  A
C1087      C1088   1.401       .  A
C1087     Br1094   1.921       .  S
C1088      C1089   1.406       .  A
C1088      H1093   1.084       .  S
C1089      C2194   1.415   1_455  A
C1090      C2193   1.415       .  A
C1090     Br1091   1.921       .  S
C1095      C2200   1.404       .  A
C1095      C1100   1.401       .  A
C1095      H1102   1.084       .  S
C1096      C2199   1.404   1_455  A
C1096      C1097   1.410       .  A
C1097      C1098   1.403       .  A
C1097     Br1104   1.918       .  S
C1098      C1099   1.405       .  A
C1098      H1103   1.084       .  S
C1099      C2204   1.413   1_455  A
C1100      C2203   1.413       .  A
C1100     Br1101   1.921       .  S
N1105      C1110   1.354       .  A
N1105      C1109   1.355       .  A
N1105      H1137   1.041       .  S
N1106      C1113   1.350       .  A
N1106      C1114   1.350       .  A
N1107      C1112   1.347       .  A
N1107      C1111   1.348       .  A
N1107      H1138   1.042       .  S
N1108      C1115   1.347       .  A
N1108      C1116   1.348       .  A
C1109      C1117   1.387       .  A
C1109      C1125   1.419       .  A
C1110      C1126   1.417       .  A
C1110      C1118   1.386       .  A
C1111      C1119   1.388       .  A
C1111      C1128   1.409       .  A
C1112      C1127   1.405       .  A
C1112      C1120   1.386       .  A
C1113      C1125   1.413       .  A
C1113      C1121   1.386       .  A
C1114      C1128   1.413       .  A
C1114      C1122   1.386       .  A
C1115      C1123   1.388       .  A
C1115      C1126   1.410       .  A
C1116      C1124   1.385       .  A
C1116      C1127   1.406       .  A
C1117      C1118   1.382       .  A
C1117      H1129   1.082       .  S
C1118      H1130   1.082       .  S
C1119      C1120   1.379       .  A
C1119      H1131   1.082       .  S
C1120      H1132   1.083       .  S
C1121      C1122   1.376       .  A
C1121      H1133   1.082       .  S
C1122      H1134   1.082       .  S
C1123      C1124   1.374       .  A
C1123      H1135   1.082       .  S
C1124      H1136   1.082       .  S
C1125      C1372   1.498       .  S
C1126      C1362   1.487       .  S
C1127      C1355   1.474       .  S
C1128      C1342   1.487       .  S
O1139      C1150   1.293       .  A
O1139     Zr1451   2.444       .  S
O1140      C1151   1.294       .  A
O1140     Zr1450   2.448       .  S
O1141      C1152   1.288       .  A
O1142      C1153   1.295       .  A
O1142     Zr1699   2.457       .  S
O1143      C1705   1.290       .  A
O1143     Zr1453   2.432       .  S
O1144      C1704   1.289       .  A
O1144     Zr1452   2.423       .  S
O1145      C1151   1.292       .  A
O1145     Zr1147   2.438       .  S
O1146      C1150   1.295       .  A
O1146     Zr1699   2.451       .  S
Zr1147     O1694   2.451       .  S
Zr1147     O1698   2.434       .  S
Zr1147     O1148   2.329       .  S
Zr1147     O1709   2.337       .  S
O1148     Zr1450   2.349       .  S
O1148     Zr1453   2.338       .  S
O1149     Zr2004   2.341       .  S
C1150      C1375   1.486       .  S
C1151      C1365   1.478       .  S
C1152      C1332   1.455   1_545  S
C1152      O1696   1.292       .  A
C1153      C1322   1.475       .  S
C1153      O1695   1.288   1_545  A
H1154      O1155   0.967       .  S
O1155     Zr1452   2.343       .  S
H1156      O1157   0.965       .  S
O1157     Zr1699   2.337       .  S
O1157     Zr1451   2.344       .  S
O1157     Zr2005   2.342   1_544  S
O1158      C1181   1.290       .  A
O1158     Zr1174   2.428       .  S
O1159      C1182   1.293       .  A
O1159     Zr1175   2.440       .  S
O1160      C1183   1.293       .  A
O1160     Zr1176   2.452       .  S
O1161      C1184   1.294       .  A
O1161     Zr1177   2.455       .  S
O1162      C1185   1.294       .  A
O1162     Zr1729   2.455   1_545  S
O1163      C1186   1.291       .  A
O1163     Zr1728   2.434       .  S
O1164      C1187   1.292       .  A
O1165      C1188   1.294       .  A
O1165     Zr1178   2.451       .  S
O1166      C1187   1.296       .  A
O1166     Zr1176   2.457       .  S
O1167      C1188   1.287       .  A
O1167     Zr1177   2.416       .  S
O1168      C1183   1.296       .  A
O1169      C1186   1.294       .  A
O1170      C1185   1.291       .  A
O1170     Zr1175   2.435       .  S
O1171      C1184   1.289       .  A
O1171     Zr1174   2.430       .  S
O1172      C1181   1.291       .  A
O1172     Zr1178   2.432       .  S
O1173      C1182   1.291       .  A
O1173     Zr1730   2.436   1_545  S
Zr1174     O1416   2.435       .  S
Zr1174     O1424   2.351       .  S
Zr1174     O1192   2.350       .  S
Zr1175     O1415   2.441       .  S
Zr1175     O1433   2.349       .  S
Zr1175     O1179   2.347       .  S
Zr1176     O1420   2.442       .  S
Zr1176     O1715   2.435       .  S
Zr1176     O1977   2.351       .  S
Zr1176     O1431   2.341       .  S
Zr1176     O1180   2.332       .  S
Zr1176     O1742   2.339       .  S
Zr1177     O1419   2.431       .  S
Zr1177     O1714   2.441       .  S
Zr1177     O1424   2.333       .  S
Zr1177     O1985   2.342       .  S
Zr1177     O1731   2.353       .  S
Zr1177     O1192   2.338       .  S
Zr1178     O1725   2.439       .  S
Zr1178     O1731   2.335       .  S
Zr1178     O1192   2.342       .  S
O1179     Zr1729   2.353   1_545  S
O1179     Zr1730   2.340   1_545  S
C1181      C1352   1.464       .  S
C1182      C1345   1.480       .  S
C1183      C1265   1.498       .  S
C1184      C1285   1.468       .  S
C1185      C1292   1.470       .  S
C1186      C1272   1.476       .  S
C1187      C1305   1.479       .  S
C1188      C1312   1.466       .  S
H1189      O1190   0.965       .  S
O1190     Zr1728   2.345       .  S
H1191      O1192   0.961       .  S
N1193      C1198   1.354       .  A
N1193      C1197   1.349       .  A
N1193      H1225   1.040   1_545  S
N1194      C1201   1.349       .  A
N1194      C1202   1.352       .  A
N1195      C1200   1.349       .  A
N1195      C1199   1.353       .  A
N1195      H1226   1.040   1_545  S
N1196      C1203   1.350       .  A
N1196      C1204   1.346       .  A
C1197      C1205   1.386       .  A
C1197      C1213   1.409       .  A
C1198      C1214   1.414   1_545  A
C1198      C1206   1.387       .  A
C1199      C1207   1.385       .  A
C1199      C1216   1.412       .  A
C1200      C1215   1.414   1_545  A
C1200      C1208   1.390       .  A
C1201      C1213   1.409       .  A
C1201      C1209   1.386   1_545  A
C1202      C1216   1.411       .  A
C1202      C1210   1.386   1_545  A
C1203      C1211   1.385       .  A
C1203      C1214   1.410       .  A
C1204      C1212   1.388       .  A
C1204      C1215   1.409       .  A
C1205      C1206   1.377       .  A
C1205      H1217   1.082       .  S
C1206      H1218   1.082       .  S
C1207      C1208   1.375       .  A
C1207      H1219   1.082       .  S
C1208      H1220   1.082       .  S
C1209      C1210   1.373       .  A
C1209      H1221   1.082       .  S
C1210      H1222   1.082       .  S
C1211      C1212   1.374       .  A
C1211      H1223   1.082       .  S
C1212      H1224   1.082       .  S
C1213      C1315   1.475       .  S
C1214      C1302   1.490       .  S
C1215      C1335   1.471       .  S
C1216      C1325   1.491       .  S
N1227      C1232   1.355       .  A
N1227      C1231   1.358       .  A
N1227      H1259   1.038       .  S
N1228      C1235   1.356       .  A
N1228      C1236   1.354       .  A
N1229      C1234   1.356       .  A
N1229      C1233   1.353       .  A
N1229      H1260   1.038       .  S
N1230      C1237   1.351       .  A
N1230      C1238   1.353       .  A
C1231      C1239   1.387       .  A
C1231      C1247   1.424       .  A
C1232      C1248   1.422       .  A
C1232      C1240   1.388       .  A
C1233      C1241   1.389       .  A
C1233      C1250   1.419       .  A
C1234      C1249   1.416       .  A
C1234      C1242   1.386       .  A
C1235      C1247   1.423       .  A
C1235      C1243   1.387       .  A
C1236      C1250   1.419       .  A
C1236      C1244   1.386       .  A
C1237      C1245   1.389       .  A
C1237      C1248   1.416       .  A
C1238      C1246   1.385       .  A
C1238      C1249   1.412       .  A
C1239      C1240   1.378       .  A
C1239      H1251   1.082       .  S
C1240      H1252   1.082       .  S
C1241      C1242   1.375       .  A
C1241      H1253   1.082       .  S
C1242      H1254   1.082       .  S
C1243      C1244   1.375       .  A
C1243      H1255   1.082       .  S
C1244      H1256   1.082       .  S
C1245      C1246   1.372       .  A
C1245      H1257   1.082       .  S
C1246      H1258   1.083       .  S
C1247      C1262   1.511       .  S
C1248      C1282   1.488       .  S
C1249      C1295   1.489       .  S
C1250      C1275   1.493       .  S
C1261      C1262   1.407       .  A
C1261      C1266   1.405       .  A
C1261      H1544   1.083       .  S
C1262      C1263   1.414       .  A
C1263      C1264   1.407       .  A
C1263     Br1270   1.919       .  S
C1264      C1265   1.408       .  A
C1264      H1269   1.083       .  S
C1265      C1266   1.415       .  A
C1266     Br1543   1.918       .  S
Br1267     C1542   1.916       .  S
H1268      C1537   1.083       .  S
C1271      C1272   1.402       .  A
C1271      C1276   1.400       .  A
C1271      H1278   1.084       .  S
C1272      C1549   1.410       .  A
C1273      C1548   1.414       .  A
C1273      C1274   1.400       .  A
C1273     Br1280   1.919       .  S
C1274      C1551   1.404   1_554  A
C1274      H1279   1.084       .  S
C1275      C1550   1.405       .  A
C1275      C1276   1.411       .  A
C1276     Br1277   1.919       .  S
C1281      C1558   1.406       .  A
C1281      C1286   1.401       .  A
C1281      H1288   1.083       .  S
C1282      C1557   1.406       .  A
C1282      C1283   1.409       .  A
C1283      C1284   1.399       .  A
C1283     Br1290   1.918       .  S
C1284      C1285   1.401       .  A
C1284      H1289   1.083       .  S
C1285      C1562   1.405       .  A
C1286      C1561   1.407       .  A
C1286     Br1287   1.920       .  S
C1291      C1568   1.406   1_554  A
C1291      C1296   1.403       .  A
C1291      H1298   1.084       .  S
C1292      C1567   1.404       .  A
C1292      C1293   1.405       .  A
C1293      C1294   1.400       .  A
C1293     Br1300   1.920       .  S
C1294      C1295   1.404       .  A
C1294      H1299   1.083       .  S
C1295      C1572   1.409       .  A
C1296      C1571   1.411   1_554  A
C1296     Br1297   1.919       .  S
C1301      C1302   1.404   1_545  A
C1301      C1306   1.400       .  A
C1301      H1308   1.084       .  S
C1302      C1855   1.409       .  A
C1303      C1854   1.409       .  A
C1303      C1304   1.400       .  A
C1303     Br1310   1.919       .  S
C1304      C1305   1.404       .  A
C1304      H1309   1.084       .  S
C1305      C1858   1.412       .  A
C1306      C1857   1.410   1_545  A
C1306     Br1307   1.920       .  S
C1311      C1864   1.401   1_545  A
C1311      C1316   1.395       .  A
C1311      H1318   1.080       .  S
C1312      C1863   1.400       .  A
C1312      C1313   1.408       .  A
C1313      C1314   1.392       .  A
C1313     Br1320   1.911       .  S
C1314      C1867   1.398       .  A
C1314      H1319   1.084       .  S
C1315      C1866   1.401   1_545  A
C1315      C1316   1.405       .  A
C1316     Br1317   1.918       .  S
C1321      C1322   1.404       .  A
C1321      C1326   1.400       .  A
C1321      H1328   1.084       .  S
C1322      C1875   1.411   1_545  A
C1323      C1874   1.414       .  A
C1323      C1324   1.396       .  A
C1323     Br1330   1.917       .  S
C1324      C1877   1.401       .  A
C1324      H1329   1.084       .  S
C1325      C1876   1.403   1_545  A
C1325      C1326   1.411       .  A
C1326     Br1327   1.920       .  S
C1331      C1884   1.399       .  A
C1331      C1336   1.391       .  A
C1331      H1338   1.081       .  S
C1332      C1883   1.400       .  A
C1332      C1333   1.404   1_565  A
C1333      C1334   1.394       .  A
C1333     Br1340   1.918       .  S
C1334      C1335   1.402   1_545  A
C1334      H1339   1.084       .  S
C1335      C1888   1.404       .  A
C1336      C1887   1.404       .  A
C1336     Br1337   1.920       .  S
C1341      C1342   1.401       .  A
C1341      C1346   1.394       .  A
C1341      H1348   1.084       .  S
C1343      C1344   1.398       .  A
C1343     Br1350   1.921       .  S
C1344      H1349   1.084       .  S
C1345      C1346   1.413       .  A
C1346     Br1347   1.914       .  S
C1351      C1356   1.395       .  A
C1351      H1358   1.084       .  S
C1352      C1353   1.409       .  A
C1353      C1354   1.394       .  A
C1353     Br1360   1.918       .  S
C1354      C1355   1.400       .  A
C1354      H1359   1.084       .  S
C1356     Br1357   1.918       .  S
C1361      C1366   1.398       .  A
C1361      H1368   1.083       .  S
C1362      C1363   1.411       .  A
C1363      C1364   1.401       .  A
C1363     Br1370   1.920       .  S
C1364      C1365   1.405       .  A
C1364      H1369   1.084       .  S
C1366     Br1367   1.919       .  S
C1371      C1376   1.404       .  A
C1371      H1378   1.083       .  S
C1372      C1373   1.413       .  A
C1373      C1374   1.401       .  A
C1373     Br1380   1.920       .  S
C1374      C1375   1.404       .  A
C1374      H1379   1.084       .  S
C1376     Br1377   1.921       .  S
N1381      C1386   1.354       .  A
N1381      C1385   1.355       .  A
N1381      H1413   1.040       .  S
N1382      C1389   1.354       .  A
N1382      C1390   1.353       .  A
N1383      C1388   1.354       .  A
N1383      C1387   1.353       .  A
N1383      H1414   1.038       .  S
N1384      C1391   1.350       .  A
N1384      C1392   1.351       .  A
C1385      C1393   1.387       .  A
C1385      C1401   1.420       .  A
C1386      C1402   1.416       .  A
C1386      C1394   1.386       .  A
C1387      C1395   1.387       .  A
C1387      C1404   1.417       .  A
C1388      C1403   1.417       .  A
C1388      C1396   1.387       .  A
C1389      C1401   1.419       .  A
C1389      C1397   1.386       .  A
C1390      C1404   1.416       .  A
C1390      C1398   1.386       .  A
C1391      C1399   1.387       .  A
C1391      C1402   1.413       .  A
C1392      C1400   1.386       .  A
C1392      C1403   1.412       .  A
C1393      C1394   1.378       .  A
C1393      H1405   1.082       .  S
C1394      H1406   1.082       .  S
C1395      C1396   1.377       .  A
C1395      H1407   1.082       .  S
C1396      H1408   1.082       .  S
C1397      C1398   1.374       .  A
C1397      H1409   1.082       .  S
C1398      H1410   1.083       .  S
C1399      C1400   1.373       .  A
C1399      H1411   1.082       .  S
C1400      H1412   1.082       .  S
C1401      C1648   1.503       .  S
C1402      C1638   1.486       .  S
C1403      C1631   1.487       .  S
C1404      C1618   1.488       .  S
O1415      C1426   1.292       .  A
O1416      C1427   1.291       .  A
O1417      C1428   1.289       .  A
O1418      C1429   1.296       .  A
O1418     Zr1975   2.457       .  S
O1419      C1981   1.289       .  A
O1420      C1980   1.293       .  A
O1421      C1427   1.294       .  A
O1421     Zr1423   2.445       .  S
O1422      C1426   1.298       .  A
O1422     Zr1975   2.469   1_545  S
Zr1423     O1970   2.460       .  S
Zr1423     O1974   2.464       .  S
Zr1423     O1424   2.335       .  S
Zr1423     O1985   2.329       .  S
O1425     Zr1728   2.344       .  S
C1426      C1651   1.492       .  S
C1427      C1641   1.471       .  S
C1428      C1608   1.461       .  S
C1428      O1972   1.290       .  A
C1429      C1598   1.492       .  S
C1429      O1971   1.291       .  A
H1430      O1431   0.967       .  S
H1432      O1433   0.965       .  S
O1433     Zr1975   2.327   1_545  S
O1433     Zr1729   2.346   1_545  S
O1434      C1457   1.293       .  A
O1434     Zr1450   2.445   1_556  S
O1435      C1458   1.289       .  A
O1435     Zr1451   2.427   1_556  S
O1436      C1459   1.290       .  A
O1436     Zr1452   2.437   1_556  S
O1437      C1460   1.294       .  A
O1437     Zr1453   2.450       .  S
O1438      C1461   1.295       .  A
O1438     Zr2005   2.453   1_545  S
O1439      C1462   1.294       .  A
O1439     Zr2004   2.454       .  S
O1440      C1463   1.291       .  A
O1441      C1464   1.293       .  A
O1441     Zr1454   2.440       .  S
O1442      C1463   1.290       .  A
O1442     Zr1452   2.430   1_556  S
O1443      C1464   1.290       .  A
O1443     Zr1453   2.429   1_556  S
O1444      C1459   1.296       .  A
O1445      C1462   1.293   1_556  A
O1446      C1461   1.293       .  A
O1446     Zr1451   2.442   1_556  S
O1447      C1460   1.289       .  A
O1447     Zr1450   2.424       .  S
O1448      C1457   1.293       .  A
O1448     Zr1454   2.442       .  S
O1449      C1458   1.295       .  A
O1449     Zr2006   2.453   1_545  S
Zr1450     O1468   2.351   1_554  S
Zr1451     O1455   2.351   1_554  S
Zr1452     O1991   2.433       .  S
Zr1452     O1701   2.336       .  S
Zr1452     O1456   2.328   1_554  S
Zr1452     O2018   2.345   1_554  S
Zr1453     O1990   2.460       .  S
Zr1453     O1709   2.343       .  S
Zr1453     O2007   2.344   1_554  S
Zr1453     O1468   2.348   1_554  S
Zr1454     O2001   2.452       .  S
Zr1454     O2007   2.337       .  S
Zr1454     O1468   2.341       .  S
O1455     Zr2005   2.342   1_545  S
O1455     Zr2006   2.338   1_545  S
C1457      C1628   1.472       .  S
C1458      C1621   1.470       .  S
C1459      C1541   1.493       .  S
C1460      C1561   1.464       .  S
C1461      C1568   1.483       .  S
C1462      C1548   1.491       .  S
C1463      C1581   1.464       .  S
C1464      C1588   1.478       .  S
H1465      O1466   0.965       .  S
O1466     Zr2004   2.338   1_556  S
H1467      O1468   0.961       .  S
N1469      C1474   1.351   1_565  A
N1469      C1473   1.350   1_565  A
N1469      H1501   1.040       .  S
N1470      C1477   1.349   1_545  A
N1470      C1478   1.352   1_545  A
N1471      C1476   1.349       .  A
N1471      C1475   1.353       .  A
N1471      H1502   1.041   1_545  S
N1472      C1479   1.348       .  A
N1472      C1480   1.345       .  A
C1473      C1481   1.388       .  A
C1473      C1489   1.414       .  A
C1474      C1490   1.411   1_545  A
C1474      C1482   1.386       .  A
C1475      C1483   1.385       .  A
C1475      C1492   1.413       .  A
C1476      C1491   1.413       .  A
C1476      C1484   1.388       .  A
C1477      C1489   1.412   1_565  A
C1477      C1485   1.387       .  A
C1478      C1492   1.412   1_565  A
C1478      C1486   1.384       .  A
C1479      C1487   1.385       .  A
C1479      C1490   1.406       .  A
C1480      C1488   1.389       .  A
C1480      C1491   1.408   1_565  A
C1481      C1482   1.378       .  A
C1481      H1493   1.082       .  S
C1482      H1494   1.083       .  S
C1483      C1484   1.378       .  A
C1483      H1495   1.082       .  S
C1484      H1496   1.082       .  S
C1485      C1486   1.375       .  A
C1485      H1497   1.082       .  S
C1486      H1498   1.082       .  S
C1487      C1488   1.373       .  A
C1487      H1499   1.083       .  S
C1488      H1500   1.082       .  S
C1489      C1591   1.486   1_545  S
C1490      C1578   1.479       .  S
C1491      C1611   1.476       .  S
C1492      C1601   1.499       .  S
N1503      C1508   1.355       .  A
N1503      C1507   1.357       .  A
N1503      H1535   1.039   1_556  S
N1504      C1511   1.351   1_556  A
N1504      C1512   1.352   1_556  A
N1505      C1510   1.353       .  A
N1505      C1509   1.353       .  A
N1505      H1536   1.041   1_556  S
N1506      C1513   1.352   1_556  A
N1506      C1514   1.352   1_556  A
C1507      C1515   1.388       .  A
C1507      C1523   1.425       .  A
C1508      C1524   1.420   1_556  A
C1508      C1516   1.387       .  A
C1509      C1517   1.386       .  A
C1509      C1526   1.415       .  A
C1510      C1525   1.415       .  A
C1510      C1518   1.387       .  A
C1511      C1523   1.416   1_554  A
C1511      C1519   1.387       .  A
C1512      C1526   1.413   1_554  A
C1512      C1520   1.385       .  A
C1513      C1521   1.386       .  A
C1513      C1524   1.414       .  A
C1514      C1522   1.387       .  A
C1514      C1525   1.416   1_554  A
C1515      C1516   1.376       .  A
C1515      H1527   1.082       .  S
C1516      H1528   1.082       .  S
C1517      C1518   1.378       .  A
C1517      H1529   1.082       .  S
C1518      H1530   1.082       .  S
C1519      C1520   1.377       .  A
C1519      H1531   1.082       .  S
C1520      H1532   1.082       .  S
C1521      C1522   1.372       .  A
C1521      H1533   1.082       .  S
C1522      H1534   1.082       .  S
C1523      C1538   1.505       .  S
C1524      C1558   1.488       .  S
C1525      C1571   1.493       .  S
C1526      C1551   1.498       .  S
C1537      C1538   1.404   1_554  A
C1537      C1542   1.399       .  A
C1538      C1539   1.417       .  A
C1539      C1540   1.403       .  A
C1539     Br1546   1.922       .  S
C1540      C1541   1.406       .  A
C1540      H1545   1.084       .  S
C1541      C1542   1.416   1_556  A
C1547      C1548   1.409   1_556  A
C1547      C1552   1.406       .  A
C1547      H1554   1.084       .  S
C1549      C1550   1.400       .  A
C1549     Br1556   1.920       .  S
C1550      H1555   1.084       .  S
C1551      C1552   1.411       .  A
C1552     Br1553   1.920       .  S
C1557      C1562   1.400       .  A
C1557      H1564   1.083       .  S
C1558      C1559   1.409   1_554  A
C1559      C1560   1.396       .  A
C1559     Br1566   1.916       .  S
C1560      C1561   1.399   1_556  A
C1560      H1565   1.084       .  S
C1562     Br1563   1.919       .  S
C1567      C1572   1.402       .  A
C1567      H1574   1.084       .  S
C1568      C1569   1.412       .  A
C1569      C1570   1.397       .  A
C1569     Br1576   1.915       .  S
C1570      C1571   1.402       .  A
C1570      H1575   1.084       .  S
C1572     Br1573   1.918       .  S
C1577      C1578   1.400   1_545  A
C1577      C1582   1.395       .  A
C1577      H1584   1.084       .  S
C1578      C2131   1.407       .  A
C1579      C2130   1.408       .  A
C1579      C1580   1.397       .  A
C1579     Br1586   1.919       .  S
C1580      C1581   1.402       .  A
C1580      H1585   1.084       .  S
C1581      C2134   1.407       .  A
C1582      C2133   1.408   1_545  A
C1582     Br1583   1.917       .  S
C1587      C2140   1.401   1_545  A
C1587      C1592   1.395       .  A
C1587      H1594   1.079       .  S
C1588      C2139   1.402       .  A
C1588      C1589   1.414       .  A
C1589      C1590   1.399       .  A
C1589     Br1596   1.920       .  S
C1590      C2143   1.403       .  A
C1590      H1595   1.084       .  S
C1591      C2142   1.403       .  A
C1591      C1592   1.409   1_565  A
C1592     Br1593   1.921       .  S
C1597      C1598   1.407   1_545  A
C1597      C1602   1.402       .  A
C1597      H1604   1.084       .  S
C1598      C2151   1.417       .  A
C1599      C2150   1.418       .  A
C1599      C1600   1.400       .  A
C1599     Br1606   1.920       .  S
C1600      C2153   1.403       .  A
C1600      H1605   1.084       .  S
C1601      C2152   1.405   1_545  A
C1601      C1602   1.412       .  A
C1602     Br1603   1.920       .  S
C1607      C2160   1.398       .  A
C1607      C1612   1.393       .  A
C1607      H1614   1.083       .  S
C1608      C2159   1.399   1_545  A
C1608      C1609   1.408       .  A
C1609      C1610   1.395       .  A
C1609     Br1616   1.921       .  S
C1610      C1611   1.405       .  A
C1610      H1615   1.084       .  S
C1611      C2164   1.406   1_545  A
C1612      C2163   1.406       .  A
C1612     Br1613   1.918       .  S
C1617      C1618   1.403       .  A
C1617      C1622   1.398       .  A
C1617      H1624   1.083       .  S
C1619      C1620   1.400       .  A
C1619     Br1626   1.916       .  S
C1620      H1625   1.084       .  S
C1621      C1622   1.405       .  A
C1622     Br1623   1.911       .  S
C1627      C1632   1.402       .  A
C1627      H1634   1.084       .  S
C1628      C1629   1.408       .  A
C1629      C1630   1.400       .  A
C1629     Br1636   1.920       .  S
C1630      C1631   1.403       .  A
C1630      H1635   1.083       .  S
C1632     Br1633   1.918       .  S
C1637      C1642   1.400       .  A
C1637      H1644   1.083       .  S
C1638      C1639   1.409       .  A
C1639      C1640   1.398       .  A
C1639     Br1646   1.917       .  S
C1640      C1641   1.402       .  A
C1640      H1645   1.084       .  S
C1642     Br1643   1.921       .  S
C1647      C1652   1.403       .  A
C1647      H1654   1.084       .  S
C1648      C1649   1.413       .  A
C1649      C1650   1.405       .  A
C1649     Br1656   1.919       .  S
C1650      C1651   1.406       .  A
C1650      H1655   1.083       .  S
C1652     Br1653   1.920       .  S
N1657      C1662   1.351       .  A
N1657      C1661   1.351       .  A
N1657      H1689   1.041       .  S
N1658      C1665   1.350       .  A
N1658      C1666   1.349       .  A
N1659      C1664   1.353       .  A
N1659      C1663   1.353       .  A
N1659      H1690   1.041       .  S
N1660      C1667   1.351       .  A
N1660      C1668   1.350       .  A
C1661      C1669   1.388       .  A
C1661      C1677   1.413       .  A
C1662      C1678   1.412       .  A
C1662      C1670   1.386       .  A
C1663      C1671   1.388       .  A
C1663      C1680   1.416       .  A
C1664      C1679   1.415       .  A
C1664      C1672   1.387       .  A
C1665      C1677   1.411       .  A
C1665      C1673   1.387       .  A
C1666      C1680   1.412       .  A
C1666      C1674   1.387       .  A
C1667      C1675   1.386       .  A
C1667      C1678   1.411       .  A
C1668      C1676   1.385       .  A
C1668      C1679   1.410       .  A
C1669      C1670   1.378       .  A
C1669      H1681   1.082       .  S
C1670      H1682   1.082       .  S
C1671      C1672   1.380       .  A
C1671      H1683   1.082       .  S
C1672      H1684   1.082       .  S
C1673      C1674   1.373       .  A
C1673      H1685   1.082       .  S
C1674      H1686   1.082       .  S
C1675      C1676   1.374       .  A
C1675      H1687   1.082       .  S
C1676      H1688   1.082       .  S
C1677      C1924   1.486       .  S
C1678      C1914   1.486       .  S
C1679      C1907   1.488       .  S
C1680      C1894   1.489       .  S
O1691      C1702   1.289       .  A
O1691     Zr2003   2.425       .  S
O1692      C1703   1.291       .  A
O1692     Zr2002   2.432       .  S
O1693      C1704   1.288       .  A
O1694      C1705   1.294       .  A
O1695     Zr2005   2.420   1_554  S
O1696     Zr2004   2.441       .  S
O1697      C1703   1.297       .  A
O1697     Zr1699   2.465   1_565  S
O1698      C1702   1.292       .  A
Zr1699     O1700   2.335   1_545  S
O1700     Zr2002   2.352       .  S
O1700     Zr2005   2.340   1_554  S
C1702      C1927   1.469       .  S
C1703      C1917   1.481       .  S
C1704      C1884   1.452       .  S
C1705      C1874   1.481       .  S
H1706      O1707   0.967       .  S
O1707     Zr2004   2.345   1_565  S
H1708      O1709   0.965       .  S
O1709     Zr2003   2.347       .  S
O1710      C1733   1.294       .  A
O1710     Zr1726   2.452       .  S
O1711      C1734   1.291       .  A
O1711     Zr1727   2.434       .  S
O1712      C1735   1.293       .  A
O1712     Zr1728   2.451   1_565  S
O1713      C1736   1.296       .  A
O1713     Zr1729   2.464       .  S
O1714      C1737   1.292       .  A
O1715      C1738   1.291       .  A
O1716      C1739   1.293       .  A
O1717      C1740   1.294       .  A
O1717     Zr1730   2.447       .  S
O1718      C1739   1.293   1_565  A
O1718     Zr1728   2.446   1_565  S
O1719      C1740   1.289       .  A
O1719     Zr1729   2.429       .  S
O1720      C1735   1.294       .  A
O1721      C1738   1.296       .  A
O1722      C1737   1.294       .  A
O1722     Zr1727   2.449       .  S
O1723      C1736   1.290       .  A
O1723     Zr1726   2.434       .  S
O1724      C1733   1.291       .  A
O1724     Zr1730   2.431       .  S
O1725      C1734   1.292       .  A
Zr1726     O1968   2.435       .  S
Zr1726     O1976   2.353       .  S
Zr1726     O1744   2.351       .  S
Zr1727     O1967   2.432       .  S
Zr1727     O1985   2.354       .  S
Zr1727     O1731   2.346       .  S
Zr1728     O1972   2.422       .  S
Zr1728     O1983   2.344   1_545  S
Zr1728     O1732   2.327   1_545  S
Zr1729     O1971   2.441       .  S
Zr1729     O1976   2.333       .  S
Zr1729     O1744   2.354       .  S
Zr1730     O1744   2.349       .  S
C1733      C1904   1.476       .  S
C1734      C1897   1.475       .  S
C1735      C1817   1.483       .  S
C1736      C1837   1.475       .  S
C1737      C1844   1.471       .  S
C1738      C1824   1.482       .  S
C1739      C1857   1.479   1_545  S
C1740      C1864   1.466       .  S
H1741      O1742   0.965       .  S
H1743      O1744   0.961       .  S
N1745      C1750   1.354       .  A
N1745      C1749   1.348       .  A
N1745      H1777   1.041       .  S
N1746      C1753   1.345       .  A
N1746      C1754   1.350       .  A
N1747      C1752   1.347       .  A
N1747      C1751   1.353       .  A
N1747      H1778   1.041       .  S
N1748      C1755   1.351       .  A
N1748      C1756   1.345       .  A
C1749      C1757   1.387       .  A
C1749      C1765   1.409       .  A
C1750      C1766   1.412       .  A
C1750      C1758   1.386       .  A
C1751      C1759   1.386       .  A
C1751      C1768   1.410       .  A
C1752      C1767   1.409       .  A
C1752      C1760   1.389       .  A
C1753      C1765   1.406       .  A
C1753      C1761   1.387       .  A
C1754      C1768   1.408       .  A
C1754      C1762   1.385       .  A
C1755      C1763   1.384       .  A
C1755      C1766   1.409       .  A
C1756      C1764   1.388       .  A
C1756      C1767   1.408       .  A
C1757      C1758   1.375       .  A
C1757      H1769   1.082       .  S
C1758      H1770   1.082       .  S
C1759      C1760   1.377       .  A
C1759      H1771   1.083       .  S
C1760      H1772   1.083       .  S
C1761      C1762   1.373       .  A
C1761      H1773   1.082       .  S
C1762      H1774   1.082       .  S
C1763      C1764   1.373       .  A
C1763      H1775   1.082       .  S
C1764      H1776   1.083       .  S
C1765      C1867   1.469       .  S
C1766      C1854   1.491       .  S
C1767      C1887   1.466       .  S
C1768      C1877   1.489       .  S
N1779      C1784   1.354       .  A
N1779      C1783   1.356       .  A
N1779      H1811   1.036       .  S
N1780      C1787   1.354       .  A
N1780      C1788   1.353       .  A
N1781      C1786   1.354       .  A
N1781      C1785   1.353       .  A
N1781      H1812   1.039       .  S
N1782      C1789   1.352       .  A
N1782      C1790   1.352       .  A
C1783      C1791   1.386       .  A
C1783      C1799   1.420       .  A
C1784      C1800   1.421       .  A
C1784      C1792   1.388       .  A
C1785      C1793   1.388       .  A
C1785      C1802   1.417       .  A
C1786      C1801   1.414       .  A
C1786      C1794   1.386       .  A
C1787      C1799   1.418       .  A
C1787      C1795   1.386       .  A
C1788      C1802   1.418       .  A
C1788      C1796   1.386       .  A
C1789      C1797   1.387       .  A
C1789      C1800   1.415       .  A
C1790      C1798   1.386       .  A
C1790      C1801   1.413       .  A
C1791      C1792   1.377       .  A
C1791      H1803   1.082       .  S
C1792      H1804   1.082       .  S
C1793      C1794   1.374       .  A
C1793      H1805   1.082       .  S
C1794      H1806   1.082       .  S
C1795      C1796   1.375       .  A
C1795      H1807   1.082       .  S
C1796      H1808   1.082       .  S
C1797      C1798   1.373       .  A
C1797      H1809   1.082       .  S
C1798      H1810   1.083       .  S
C1799      C1814   1.495       .  S
C1800      C1834   1.488       .  S
C1801      C1847   1.487       .  S
C1802      C1827   1.493       .  S
C1813      C1814   1.402       .  A
C1813      C1818   1.403       .  A
C1813      H2096   1.083       .  S
C1814      C1815   1.410       .  A
C1815      C1816   1.405       .  A
C1815     Br1822   1.917       .  S
C1816      C1817   1.405       .  A
C1816      H1821   1.083       .  S
C1817      C1818   1.409       .  A
C1818     Br2095   1.911       .  S
Br1819     C2094   1.916       .  S
H1820      C2089   1.084       .  S
C1823      C1824   1.405       .  A
C1823      C1828   1.404       .  A
C1823      H1830   1.082       .  S
C1824      C2101   1.411       .  A
C1825      C2100   1.413       .  A
C1825      C1826   1.401       .  A
C1825     Br1832   1.920       .  S
C1826      C2103   1.403       .  A
C1826      H1831   1.084       .  S
C1827      C2102   1.403       .  A
C1827      C1828   1.409       .  A
C1828     Br1829   1.917       .  S
C1833      C2110   1.405       .  A
C1833      C1838   1.401       .  A
C1833      H1840   1.083       .  S
C1834      C2109   1.403       .  A
C1834      C1835   1.408       .  A
C1835      C1836   1.401       .  A
C1835     Br1842   1.917       .  S
C1836      C1837   1.403       .  A
C1836      H1841   1.083       .  S
C1837      C2114   1.409       .  A
C1838      C2113   1.407       .  A
C1838     Br1839   1.918       .  S
C1843      C2120   1.407       .  A
C1843      C1848   1.406       .  A
C1843      H1850   1.083       .  S
C1844      C2119   1.404       .  A
C1844      C1845   1.407       .  A
C1845      C1846   1.399       .  A
C1845     Br1852   1.919       .  S
C1846      C1847   1.403       .  A
C1846      H1851   1.083       .  S
C1847      C2124   1.409       .  A
C1848      C2123   1.415       .  A
C1848     Br1849   1.922       .  S
C1853      C1854   1.405       .  A
C1853      C1858   1.401       .  A
C1853      H1860   1.084       .  S
C1855      C1856   1.402       .  A
C1855     Br1862   1.919       .  S
C1856      C1857   1.406       .  A
C1856      H1861   1.084       .  S
C1858     Br1859   1.920       .  S
C1863      C1868   1.394       .  A
C1863      H1870   1.077       .  S
C1864      C1865   1.407       .  A
C1865      C1866   1.396       .  A
C1865     Br1872   1.915       .  S
C1866      H1871   1.084       .  S
C1867      C1868   1.405       .  A
C1868     Br1869   1.920       .  S
C1873      C1874   1.406       .  A
C1873      C1878   1.402       .  A
C1873      H1880   1.084       .  S
C1875      C1876   1.397       .  A
C1875     Br1882   1.918       .  S
C1876      H1881   1.084       .  S
C1877      C1878   1.411       .  A
C1878     Br1879   1.920       .  S
C1883      C1888   1.394       .  A
C1883      H1890   1.083       .  S
C1884      C1885   1.405       .  A
C1885      C1886   1.392       .  A
C1885     Br1892   1.920       .  S
C1886      C1887   1.401       .  A
C1886      H1891   1.084       .  S
C1888     Br1889   1.919       .  S
C1893      C1894   1.402       .  A
C1893      C1898   1.394       .  A
C1893      H1900   1.084       .  S
C1895      C1896   1.400       .  A
C1895     Br1902   1.917       .  S
C1896      H1901   1.083       .  S
C1897      C1898   1.408       .  A
C1898     Br1899   1.908       .  S
C1903      C1908   1.404       .  A
C1903      H1910   1.084       .  S
C1904      C1905   1.408       .  A
C1905      C1906   1.398       .  A
C1905     Br1912   1.918       .  S
C1906      C1907   1.402       .  A
C1906      H1911   1.083       .  S
C1908     Br1909   1.918       .  S
C1913      C1918   1.401       .  A
C1913      H1920   1.084       .  S
C1914      C1915   1.407       .  A
C1915      C1916   1.401       .  A
C1915     Br1922   1.919       .  S
C1916      C1917   1.404       .  A
C1916      H1921   1.083       .  S
C1918     Br1919   1.921       .  S
C1923      C1928   1.397       .  A
C1923      H1930   1.084       .  S
C1924      C1925   1.410       .  A
C1925      C1926   1.394       .  A
C1925     Br1932   1.919       .  S
C1926      C1927   1.401       .  A
C1926      H1931   1.084       .  S
C1928     Br1929   1.921       .  S
N1933      C1938   1.354       .  A
N1933      C1937   1.354       .  A
N1933      H1965   1.040       .  S
N1934      C1941   1.352       .  A
N1934      C1942   1.350       .  A
N1935      C1940   1.354       .  A
N1935      C1939   1.352       .  A
N1935      H1966   1.041       .  S
N1936      C1943   1.350       .  A
N1936      C1944   1.352       .  A
C1937      C1945   1.385       .  A
C1937      C1953   1.415       .  A
C1938      C1954   1.419       .  A
C1938      C1946   1.388       .  A
C1939      C1947   1.386       .  A
C1939      C1956   1.412       .  A
C1940      C1955   1.416       .  A
C1940      C1948   1.388       .  A
C1941      C1953   1.414       .  A
C1941      C1949   1.387       .  A
C1942      C1956   1.411       .  A
C1942      C1950   1.386       .  A
C1943      C1951   1.387       .  A
C1943      C1954   1.415       .  A
C1944      C1952   1.386       .  A
C1944      C1955   1.415       .  A
C1945      C1946   1.378       .  A
C1945      H1957   1.082       .  S
C1946      H1958   1.082       .  S
C1947      C1948   1.376       .  A
C1947      H1959   1.082       .  S
C1948      H1960   1.082       .  S
C1949      C1950   1.375       .  A
C1949      H1961   1.082       .  S
C1950      H1962   1.083       .  S
C1951      C1952   1.376       .  A
C1951      H1963   1.082       .  S
C1952      H1964   1.082       .  S
C1953      C2200   1.494       .  S
C1954      C2190   1.495       .  S
C1955      C2183   1.497       .  S
C1956      C2170   1.481       .  S
O1967      C1978   1.291       .  A
O1968      C1979   1.291       .  A
O1969      C1980   1.288       .  A
O1970      C1981   1.296       .  A
O1973      C1979   1.295       .  A
O1973     Zr1975   2.449       .  S
O1974      C1978   1.297       .  A
Zr1975     O1976   2.339       .  S
C1978      C2203   1.482       .  S
C1979      C2193   1.484       .  S
C1980      C2160   1.456       .  S
C1981      C2150   1.491       .  S
H1982      O1983   0.967       .  S
H1984      O1985   0.965       .  S
O1986      C2009   1.294       .  A
O1986     Zr2002   2.450   1_556  S
O1987      C2010   1.289       .  A
O1987     Zr2003   2.426   1_556  S
O1988      C2011   1.290       .  A
O1988     Zr2004   2.435   1_565  S
O1989      C2012   1.294       .  A
O1989     Zr2005   2.450   1_554  S
O1990      C2013   1.296       .  A
O1991      C2014   1.290       .  A
O1992      C2015   1.290       .  A
O1993      C2016   1.296       .  A
O1993     Zr2006   2.455       .  S
O1994      C2015   1.293       .  A
O1994     Zr2004   2.447   1_566  S
O1995      C2016   1.288       .  A
O1995     Zr2005   2.421       .  S
O1996      C2011   1.295       .  A
O1997      C2014   1.295       .  A
O1998      C2013   1.294       .  A
O1998     Zr2003   2.449       .  S
O1999      C2012   1.290       .  A
O1999     Zr2002   2.429       .  S
O2000      C2009   1.293       .  A
O2000     Zr2006   2.446       .  S
O2001      C2010   1.294       .  A
Zr2002     O2020   2.345   1_554  S
Zr2003     O2007   2.344   1_554  S
Zr2004     O2008   2.342   1_544  S
Zr2005     O2020   2.345       .  S
Zr2006     O2020   2.337       .  S
C2009      C2180   1.486       .  S
C2010      C2173   1.469       .  S
C2011      C2093   1.483       .  S
C2012      C2113   1.467       .  S
C2013      C2120   1.490       .  S
C2014      C2100   1.480       .  S
C2015      C2133   1.467       .  S
C2016      C2140   1.479       .  S
H2017      O2018   0.965       .  S
H2019      O2020   0.962       .  S
N2021      C2026   1.351       .  A
N2021      C2025   1.353       .  A
N2021      H2053   1.040       .  S
N2022      C2029   1.348       .  A
N2022      C2030   1.349       .  A
N2023      C2028   1.352       .  A
N2023      C2027   1.354       .  A
N2023      H2054   1.041       .  S
N2024      C2031   1.349       .  A
N2024      C2032   1.348       .  A
C2025      C2033   1.388       .  A
C2025      C2041   1.416       .  A
C2026      C2042   1.411       .  A
C2026      C2034   1.386       .  A
C2027      C2035   1.388       .  A
C2027      C2044   1.419       .  A
C2028      C2043   1.412       .  A
C2028      C2036   1.385       .  A
C2029      C2041   1.411       .  A
C2029      C2037   1.387       .  A
C2030      C2044   1.412       .  A
C2030      C2038   1.386       .  A
C2031      C2039   1.387       .  A
C2031      C2042   1.407       .  A
C2032      C2040   1.387       .  A
C2032      C2043   1.406       .  A
C2033      C2034   1.378       .  A
C2033      H2045   1.082       .  S
C2034      H2046   1.082       .  S
C2035      C2036   1.377       .  A
C2035      H2047   1.082       .  S
C2036      H2048   1.082       .  S
C2037      C2038   1.376       .  A
C2037      H2049   1.082       .  S
C2038      H2050   1.082       .  S
C2039      C2040   1.372       .  A
C2039      H2051   1.082       .  S
C2040      H2052   1.083       .  S
C2041      C2143   1.489       .  S
C2042      C2130   1.480       .  S
C2043      C2163   1.477       .  S
C2044      C2153   1.497       .  S
N2055      C2060   1.355       .  A
N2055      C2059   1.356       .  A
N2055      H2087   1.040       .  S
N2056      C2063   1.350       .  A
N2056      C2064   1.352       .  A
N2057      C2062   1.352   1_554  A
N2057      C2061   1.353   1_554  A
N2057      H2088   1.041       .  S
N2058      C2065   1.353       .  A
N2058      C2066   1.353       .  A
C2059      C2067   1.387   1_554  A
C2059      C2075   1.420       .  A
C2060      C2076   1.420       .  A
C2060      C2068   1.388   1_554  A
C2061      C2069   1.385       .  A
C2061      C2078   1.411   1_556  A
C2062      C2077   1.414   1_556  A
C2062      C2070   1.387       .  A
C2063      C2075   1.416       .  A
C2063      C2071   1.388       .  A
C2064      C2078   1.412       .  A
C2064      C2072   1.385       .  A
C2065      C2073   1.387       .  A
C2065      C2076   1.416       .  A
C2066      C2074   1.387       .  A
C2066      C2077   1.420       .  A
C2067      C2068   1.374       .  A
C2067      H2079   1.082       .  S
C2068      H2080   1.081       .  S
C2069      C2070   1.377       .  A
C2069      H2081   1.082       .  S
C2070      H2082   1.082       .  S
C2071      C2072   1.376       .  A
C2071      H2083   1.082       .  S
C2072      H2084   1.082       .  S
C2073      C2074   1.376       .  A
C2073      H2085   1.082       .  S
C2074      H2086   1.082       .  S
C2075      C2090   1.498       .  S
C2076      C2110   1.491       .  S
C2077      C2123   1.498       .  S
C2078      C2103   1.491       .  S
C2089      C2090   1.405       .  A
C2089      C2094   1.400       .  A
C2090      C2091   1.413   1_554  A
C2091      C2092   1.399       .  A
C2091     Br2098   1.920       .  S
C2092      C2093   1.403   1_556  A
C2092      H2097   1.084       .  S
C2093      C2094   1.414       .  A
C2099      C2100   1.403   1_556  A
C2099      C2104   1.401       .  A
C2099      H2106   1.084       .  S
C2101      C2102   1.398       .  A
C2101     Br2108   1.915       .  S
C2102      H2107   1.084       .  S
C2103      C2104   1.409   1_554  A
C2104     Br2105   1.917       .  S
C2109      C2114   1.401       .  A
C2109      H2116   1.083       .  S
C2110      C2111   1.411   1_554  A
C2111      C2112   1.398       .  A
C2111     Br2118   1.919       .  S
C2112      C2113   1.399   1_556  A
C2112      H2117   1.083       .  S
C2114     Br2115   1.918       .  S
C2119      C2124   1.402       .  A
C2119      H2126   1.084       .  S
C2120      C2121   1.413   1_554  A
C2121      C2122   1.399       .  A
C2121     Br2128   1.915       .  S
C2122      C2123   1.402   1_556  A
C2122      H2127   1.084       .  S
C2124     Br2125   1.918       .  S
C2129      C2130   1.403       .  A
C2129      C2134   1.397       .  A
C2129      H2136   1.083       .  S
C2131      C2132   1.399       .  A
C2131     Br2138   1.918       .  S
C2132      C2133   1.403       .  A
C2132      H2137   1.084       .  S
C2134     Br2135   1.918       .  S
C2139      C2144   1.394       .  A
C2139      H2146   1.081       .  S
C2140      C2141   1.415       .  A
C2141      C2142   1.398       .  A
C2141     Br2148   1.919       .  S
C2142      H2147   1.084       .  S
C2143      C2144   1.409       .  A
C2144     Br2145   1.918       .  S
C2149      C2150   1.405       .  A
C2149      C2154   1.400       .  A
C2149      H2156   1.084       .  S
C2151      C2152   1.403       .  A
C2151     Br2158   1.920       .  S
C2152      H2157   1.084       .  S
C2153      C2154   1.413       .  A
C2154     Br2155   1.919       .  S
C2159      C2164   1.388       .  A
C2159      H2166   1.079       .  S
C2160      C2161   1.406       .  A
C2161      C2162   1.397       .  A
C2161     Br2168   1.921       .  S
C2162      C2163   1.404       .  A
C2162      H2167   1.083       .  S
C2164     Br2165   1.921       .  S
C2169      C2170   1.402       .  A
C2169      C2174   1.398       .  A
C2169      H2176   1.083       .  S
C2171      C2172   1.397       .  A
C2171     Br2178   1.918       .  S
C2172      H2177   1.084       .  S
C2173      C2174   1.408       .  A
C2174     Br2175   1.913       .  S
C2179      C2184   1.404       .  A
C2179      H2186   1.084       .  S
C2180      C2181   1.413       .  A
C2181      C2182   1.398       .  A
C2181     Br2188   1.921       .  S
C2182      C2183   1.404       .  A
C2182      H2187   1.084       .  S
C2184     Br2185   1.921       .  S
C2189      C2194   1.398       .  A
C2189      H2196   1.084       .  S
C2190      C2191   1.413       .  A
C2191      C2192   1.401       .  A
C2191     Br2198   1.921       .  S
C2192      C2193   1.406       .  A
C2192      H2197   1.084       .  S
C2194     Br2195   1.921       .  S
C2199      C2204   1.401       .  A
C2199      H2206   1.084       .  S
C2200      C2201   1.410       .  A
C2201      C2202   1.403       .  A
C2201     Br2208   1.918       .  S
C2202      C2203   1.405       .  A
C2202      H2207   1.084       .  S
C2204     Br2205   1.921       .  S
