geometry optimzed in LAMMPS
_audit_creation_date              2020-11-30 
_audit_creation_method            'lammps2cif' 
_symmetry_space_group_name_H-M    'P1' 
_symmetry_Int_Tables_number       1 
_symmetry_cell_setting            triclinic 
loop_ 
_symmetry_equiv_pos_as_xyz 
  x,y,z 
_cell_length_a                    39.53697607 
_cell_length_b                    39.54414739874556 
_cell_length_c                    39.56488081979489 
_cell_angle_alpha                 90.0132637753308 
_cell_angle_beta                  89.99659901133441 
_cell_angle_gamma                 90.00642649521257 
loop_ 
_atom_site_label 
_atom_site_type_symbol 
_atom_site_fract_x 
_atom_site_fract_y 
_atom_site_fract_z 
_atom_site_charge 
O1          O  0.68224919  0.03273394  0.70493492    -0.55300
C2          C  0.63963911  0.13142993  0.72984687     0.77400
O3          O  0.69334193  0.13062163  0.63412846    -0.56400
C4          C  0.67677193  0.01447774  0.67907815     0.77300
C5          C  0.60898089  0.08652619  0.63605105     0.79700
Cd6        Cd  0.66860832  0.08954649  0.67524011     1.37500
O7          O  0.66116644  0.10842199  0.73619484    -0.55300
O8          O  0.60887529  0.07975926  0.66725636    -0.54100
C9          C  0.72403669  0.12678592  0.64179433     0.79700
O10         O  0.63697572  0.09381263  0.62238894    -0.56500
O11         O  0.63349612  0.13644093  0.69900475    -0.54900
O12         O  0.66995250  0.03057071  0.65235423    -0.54900
O13         O  0.72992793  0.10610545  0.66561596    -0.54100
O14         O  0.63306938  0.89035540  0.62919301    -0.55300
C15         C  0.72386084  0.86665958  0.64145563     0.77400
O16         O  0.68176471  0.95878186  0.70552502    -0.56400
C17         C  0.60635423  0.89687838  0.64555569     0.77300
C18         C  0.64559797  0.85690416  0.72984723     0.79700
Cd19       Cd  0.66967942  0.90148001  0.67669984     1.37500
O20         O  0.69341305  0.86475782  0.63234370    -0.55300
O21         O  0.63902402  0.85222356  0.69912712    -0.54100
C22         C  0.67665815  0.97659672  0.67931521     0.79700
O23         O  0.66649404  0.88042491  0.73658548    -0.56500
O24         O  0.73005107  0.88524857  0.66685401    -0.54900
O25         O  0.60915255  0.90815698  0.67531864    -0.54900
O26         O  0.67001538  0.96008363  0.65272667    -0.54100
O27         O  0.28101909  0.12870485  0.63132732    -0.55300
C28         C  0.36824060  0.09696178  0.64491907     0.77400
O29         O  0.30871901  0.11222352  0.73584133    -0.56400
C30         C  0.25064485  0.12717182  0.64076118     0.77300
C31         C  0.29777210  0.01693529  0.67841237     0.79700
Cd32       Cd  0.30479340  0.09207563  0.67576297     1.37500
O33         O  0.34154741  0.10284311  0.62829467    -0.55300
O34         O  0.30444284  0.03336082  0.65177638    -0.54100
C35         C  0.32855927  0.13663454  0.72910608     0.79700
O36         O  0.29260337  0.03484278  0.70454922    -0.56500
O37         O  0.36540749  0.08610765  0.67482369    -0.54900
O38         O  0.24450632  0.10871604  0.66626678    -0.54900
O39         O  0.33416528  0.14218418  0.69832870    -0.54100
O40         O  0.29234761  0.96096032  0.70436354    -0.55300
C41         C  0.33468336  0.86219680  0.72989483     0.77400
O42         O  0.28151895  0.86245437  0.63427108    -0.56400
C43         C  0.29771435  0.97905070  0.67837168     0.77300
C44         C  0.36562254  0.90693184  0.63598768     0.79700
Cd45       Cd  0.30597523  0.90397219  0.67505961     1.37500
O46         O  0.31288794  0.88500039  0.73610323    -0.55300
O47         O  0.36567467  0.91388844  0.66715768    -0.54100
C48         C  0.25077204  0.86666843  0.64151969     0.79700
O49         O  0.33767468  0.89946597  0.62232892    -0.56500
O50         O  0.34121994  0.85737556  0.69910172    -0.54900
O51         O  0.30449988  0.96279003  0.65173239    -0.54900
O52         O  0.24475536  0.88770437  0.66500300    -0.54100
C53         C  0.51864230  0.90020248  0.59594577     0.89000
C54         C  0.51650814  0.88017215  0.56303182    -0.51200
C55         C  0.49012470  0.89003150  0.54331076     0.12000
C56         C  0.46851296  0.91870526  0.55806414     0.22900
C57         C  0.52022896  0.93735080  0.58532169    -0.51900
C58         C  0.49398200  0.94692238  0.56547185     0.12100
C59         C  0.48430204  0.89595817  0.61317947    -0.51500
C60         C  0.45810002  0.90579720  0.59306316     0.12600
H61         H  0.53523017  0.86170167  0.55507695     0.17100
H62         H  0.44702574  0.92679734  0.54183540     0.02900
H63         H  0.53970065  0.95483308  0.59371559     0.17400
H64         H  0.48103170  0.88691091  0.63889035     0.17200
C65         C  0.45602854  0.09365635  0.59561831     0.89000
C66         C  0.45838162  0.11351745  0.56262372    -0.51200
C67         C  0.48477555  0.10341588  0.54302623     0.12000
C68         C  0.50618732  0.07471041  0.55799042     0.22900
C69         C  0.45427848  0.05646529  0.58514046    -0.51900
C70         C  0.48053767  0.04666610  0.56541562     0.12100
C71         C  0.49032554  0.09780054  0.61295548    -0.51500
C72         C  0.51654741  0.08773052  0.59297314     0.12600
H73         H  0.43974369  0.13200016  0.55449902     0.17100
H74         H  0.52768979  0.06642804  0.54187191     0.02900
H75         H  0.43466677  0.03912927  0.59351317     0.17400
H76         H  0.49354920  0.10696398  0.63863292     0.17200
O77         O  0.02313401  0.70793854  0.68695431    -0.55300
C78         C  0.12147360  0.73318270  0.64517322     0.77400
O79         O  0.12182894  0.63775199  0.69836989    -0.56400
C80         C  0.00491843  0.68191269  0.68214871     0.77300
C81         C  0.07669622  0.63890971  0.61424364     0.79700
Cd82       Cd  0.07984664  0.67813913  0.67382344     1.37500
O83         O  0.09953595  0.73914702  0.66789786    -0.55300
O84         O  0.06921885  0.66997084  0.61428750    -0.54100
C85         C  0.11716328  0.64469675  0.72910993     0.79700
O86         O  0.08462730  0.62536119  0.64209737    -0.56500
O87         O  0.12547061  0.70249724  0.63758622    -0.54900
O88         O  0.02101485  0.65500755  0.67599911    -0.54900
O89         O  0.09564152  0.66775609  0.73505615    -0.54100
O90         O  0.85570923  0.63542912  0.69871283    -0.55300
C91         C  0.88696211  0.64850457  0.61149408     0.77400
O92         O  0.87203103  0.74000831  0.67081349    -0.56400
C93         C  0.85734460  0.64501640  0.72901494     0.77300
C94         C  0.96707067  0.68220787  0.68193691     0.79700
Cd95       Cd  0.89203756  0.67986338  0.67470784     1.37500
O96         O  0.88113224  0.63211894  0.63832659    -0.55300
O97         O  0.95051451  0.65559056  0.67547984    -0.54100
C98         C  0.84747389  0.73323641  0.65117477     0.79700
O99         O  0.94933355  0.70854289  0.68670573    -0.56500
O100        O  0.89777592  0.67847390  0.61405331    -0.54900
O101        O  0.87556758  0.67075307  0.73495315    -0.54900
O102        O  0.84187174  0.70243924  0.64563427    -0.54100
O103        O  0.11953307  0.63595041  0.28659832    -0.55300
C104        C  0.08777491  0.64978024  0.37385215     0.77400
O105        O  0.10299886  0.74047879  0.31436464    -0.56400
C106        C  0.11720110  0.64489216  0.25614624     0.77300
C107        C  0.00781105  0.68244074  0.30353780     0.79700
Cd108      Cd  0.08288587  0.68033160  0.31043897     1.37500
O109        O  0.09386704  0.63307174  0.34726451    -0.55300
O110        O  0.02442621  0.65596428  0.31040990    -0.54100
C111        C  0.12728868  0.73377972  0.33436148     0.79700
O112        O  0.02551063  0.70870989  0.29823249    -0.56500
O113        O  0.07671416  0.67961128  0.37090670    -0.54900
O114        O  0.09856208  0.67028832  0.25007281    -0.54900
O115        O  0.13290990  0.70298841  0.33991251    -0.54100
O116        O  0.85338525  0.63710994  0.28732341    -0.55300
C117        C  0.89774617  0.63851140  0.37111266     0.77400
O118        O  0.95162328  0.70787362  0.29789768    -0.56400
C119        C  0.85706374  0.64475807  0.25662648     0.77300
C120        C  0.85322360  0.73305783  0.34093475     0.79700
Cd121      Cd  0.89485120  0.67815221  0.31178031     1.37500
O122        O  0.89051109  0.62502136  0.34303150    -0.55300
O123        O  0.84884358  0.70226779  0.34785370    -0.54100
C124        C  0.96993733  0.68206599  0.30341006     0.79700
O125        O  0.87562485  0.73923680  0.31873138    -0.56500
O126        O  0.90468716  0.66970038  0.37139997    -0.54900
O127        O  0.87781570  0.66850805  0.25062563    -0.54900
O128        O  0.95390255  0.65530907  0.31029425    -0.54100
C129        C  0.89024530  0.59846884  0.52404349     0.89000
C130        C  0.87050050  0.56537348  0.52203774    -0.51200
C131        C  0.88045165  0.54566979  0.49568781     0.12000
C132        C  0.90898595  0.56059348  0.47398780     0.22900
C133        C  0.92750141  0.58817918  0.52555704    -0.51900
C134        C  0.93721779  0.56837496  0.49932589     0.12100
C135        C  0.88577832  0.61557494  0.48966940    -0.51500
C136        C  0.89575752  0.59546264  0.46350099     0.12600
H137        H  0.85201988  0.55736906  0.54072467     0.17100
H138        H  0.91718281  0.54436027  0.45254568     0.07700
H139        H  0.94497236  0.59688642  0.54488680     0.17400
H140        H  0.87656818  0.64123970  0.48636326     0.17200
C141        C  0.08417132  0.60012182  0.46117520     0.89000
C142        C  0.04686388  0.58996908  0.45945222    -0.51200
C143        C  0.03707241  0.56984369  0.48540619     0.12000
C144        C  0.06520980  0.56179717  0.51073636     0.22900
C145        C  0.08864301  0.61685992  0.49570105    -0.51900
C146        C  0.07852675  0.59651948  0.52160776     0.12100
C147        C  0.10379235  0.56692488  0.46282270    -0.51500
C148        C  0.09369455  0.54699128  0.48893353     0.12600
H149        H  0.02949946  0.59874841  0.44006344     0.17100
H150        H  0.05692624  0.54536612  0.53199134     0.02900
H151        H  0.09794756  0.64245073  0.49929873     0.17400
H152        H  0.12217060  0.55899733  0.44401393     0.17200
O153        O  0.13217933  0.86114701  0.38732406    -0.55300
C154        C  0.22380048  0.84835801  0.36256480     0.77400
O155        O  0.18251444  0.78525553  0.45466665    -0.56400
C156        C  0.10556153  0.84422816  0.39276795     0.77300
C157        C  0.14576792  0.76013884  0.35308118     0.79700
Cd158      Cd  0.16938984  0.81368550  0.39746801     1.37500
O159        O  0.19362706  0.85852668  0.36162279    -0.55300
O160        O  0.14075932  0.79094742  0.34700324    -0.54100
C161        C  0.17711073  0.81144034  0.47244715     0.79700
O162        O  0.16498026  0.75343732  0.37798440    -0.56500
O163        O  0.22954323  0.82218750  0.38018890    -0.54900
O164        O  0.10859766  0.81409891  0.40295558    -0.54900
O165        O  0.16991376  0.83788361  0.45594291    -0.54100
O166        O  0.18283532  0.78589466  0.52853656    -0.55300
C167        C  0.13985516  0.76032834  0.62680329     0.77400
O168        O  0.19297259  0.85644606  0.62653446    -0.56400
C169        C  0.17730160  0.81174015  0.51029225     0.77300
C170        C  0.10860910  0.85451581  0.58222535     0.79700
Cd171      Cd  0.16847197  0.81543294  0.58522937     1.37500
O172        O  0.16126292  0.75427817  0.60361746    -0.55300
O173        O  0.10877149  0.82346309  0.57469622    -0.54100
C174        C  0.22364809  0.84856875  0.62298095     0.79700
O175        O  0.13646705  0.86814784  0.59008620    -0.56500
O176        O  0.13358536  0.79112175  0.63207677    -0.54900
O177        O  0.17029094  0.83844809  0.52636073    -0.54900
O178        O  0.22961331  0.82484306  0.60220538    -0.54100
O179        O  0.81296381  0.75383917  0.38226909    -0.55300
C180        C  0.79713382  0.81097693  0.47578779     0.77400
O181        O  0.83647600  0.86835862  0.39813296    -0.56400
C182        C  0.83463971  0.76005836  0.35936474     0.77300
C183        C  0.75030691  0.84817909  0.36315381     0.79700
Cd184      Cd  0.80544703  0.81495742  0.40086007     1.37500
O185        O  0.79188664  0.78510568  0.45749290    -0.55300
O186        O  0.74428840  0.82423015  0.38365085    -0.54100
C187        C  0.86480560  0.85459775  0.40374459     0.79700
O188        O  0.78099790  0.85602590  0.35968536    -0.56500
O189        O  0.80378354  0.83780142  0.45979087    -0.54900
O190        O  0.84090161  0.79090155  0.35433505    -0.54900
O191        O  0.86535951  0.82309200  0.40899196    -0.54100
O192        O  0.78069750  0.85831426  0.62376771    -0.55300
C193        C  0.86795448  0.84398575  0.59348564     0.77400
O194        O  0.80865942  0.75276920  0.60852819    -0.56400
C195        C  0.75048629  0.84825156  0.62324239     0.77300
C196        C  0.79726692  0.81061089  0.51360570     0.79700
Cd197      Cd  0.80456625  0.81288766  0.58856808     1.37500
O198        O  0.84116665  0.86032836  0.59968558    -0.55300
O199        O  0.80375552  0.83718764  0.53019383    -0.54100
C200        C  0.82864897  0.75953454  0.63279673     0.79700
O201        O  0.79240815  0.78426950  0.53128801    -0.56500
O202        O  0.86528858  0.81409375  0.58247992    -0.54900
O203        O  0.74450411  0.82174137  0.60617449    -0.54900
O204        O  0.83411815  0.79033676  0.63846057    -0.54100
C205        C  0.01782528  0.89394991  0.39630094     0.89000
C206        C  0.01597769  0.92689096  0.37628268    -0.51200
C207        C  0.98982274  0.94690972  0.38617657     0.12000
C208        C  0.96808245  0.93236524  0.41486821     0.22900
C209        C  0.01954274  0.90459171  0.43343263    -0.51900
C210        C  0.99349139  0.92468937  0.44306231     0.12100
C211        C  0.98329703  0.87704900  0.39211100    -0.51500
C212        C  0.95729674  0.89744344  0.40198094     0.12600
H213        H  0.03478362  0.93467009  0.35782669     0.17100
H214        H  0.94676544  0.94881603  0.42298138     0.02900
H215        H  0.03893215  0.89597285  0.45088876     0.17400
H216        H  0.97976463  0.85133849  0.38312013     0.17200
C217        C  0.95531553  0.89430480  0.58981230     0.89000
C218        C  0.95741403  0.92740044  0.60958911    -0.51200
C219        C  0.98381726  0.94705831  0.59959886     0.12000
C220        C  0.00540861  0.93212117  0.57100922     0.22900
C221        C  0.95370445  0.90466200  0.55259786    -0.51900
C222        C  0.97992696  0.92449139  0.54286289     0.12100
C223        C  0.98969639  0.87714840  0.59417089    -0.51500
C224        C  0.01588788  0.89721218  0.58415340     0.12600
H225        H  0.93877225  0.93542822  0.62809036     0.17100
H226        H  0.02687310  0.94832879  0.56278882     0.02900
H227        H  0.93421251  0.89614485  0.53521122     0.17400
H228        H  0.99299048  0.85148545  0.60338457     0.17200
O229        O  0.69355736  0.12901640  0.35431408    -0.55300
C230        C  0.60594691  0.09725882  0.34061050     0.77400
O231        O  0.66539306  0.11171743  0.24985959    -0.56400
C232        C  0.72395487  0.12686998  0.34505451     0.77300
C233        C  0.67683740  0.01744428  0.30785864     0.79700
Cd234      Cd  0.66957048  0.09236664  0.31007055     1.37500
O235        O  0.63256743  0.10321406  0.35732826    -0.55300
O236        O  0.66989523  0.03396043  0.33437276    -0.54100
C237        C  0.64599822  0.13651321  0.25648350     0.79700
O238        O  0.68216319  0.03519695  0.28165813    -0.56500
O239        O  0.60891711  0.08635671  0.31073419    -0.54900
O240        O  0.72989391  0.10834048  0.31955896    -0.54900
O241        O  0.64093043  0.14268320  0.28724397    -0.54100
O242        O  0.66216346  0.88546084  0.25045570    -0.55300
C243        C  0.67691541  0.97961379  0.30806927     0.77400
O244        O  0.63702477  0.90111461  0.36467638    -0.56400
C245        C  0.63968456  0.86324913  0.25638888     0.77300
C246        C  0.72325956  0.86662022  0.34485387     0.79700
Cd247      Cd  0.66837329  0.90466321  0.31160027     1.37500
O248        O  0.68237090  0.96142301  0.28217258    -0.55300
O249        O  0.72939490  0.88769856  0.32145849    -0.54100
C250        C  0.60881328  0.90733632  0.35093268     0.79700
O251        O  0.69250218  0.86273687  0.35224555    -0.56500
O252        O  0.66995737  0.96350226  0.33473599    -0.54900
O253        O  0.63227397  0.85901907  0.28707219    -0.54900
O254        O  0.60847026  0.91347275  0.31959165    -0.54100
O255        O  0.28167913  0.13054271  0.35263785    -0.55300
C256        C  0.36546068  0.08532995  0.35128796     0.77400
O257        O  0.29175408  0.03206938  0.28225553    -0.56400
C258        C  0.25093246  0.12688898  0.34508274     0.77300
C259        C  0.33465025  0.13004311  0.25688182     0.79700
Cd260      Cd  0.30584103  0.08865569  0.31197314     1.37500
O261        O  0.33721297  0.09104788  0.36518566    -0.55300
O262        O  0.34145683  0.13480370  0.28763744    -0.54100
C263        C  0.29745114  0.01376305  0.30801103     0.79700
O264        O  0.31265664  0.10738066  0.25084331    -0.56500
O265        O  0.36583335  0.08015046  0.31977686    -0.54900
O266        O  0.24477534  0.10585590  0.32163901    -0.54900
O267        O  0.30444461  0.02974742  0.33474948    -0.54100
O268        O  0.28110992  0.86393778  0.35335162    -0.55300
C269        C  0.36843329  0.89582123  0.34086708     0.77400
O270        O  0.30959939  0.88215045  0.24908884    -0.56400
C271        C  0.25067934  0.86631201  0.34428760     0.77300
C272        C  0.29775436  0.97594781  0.30758263     0.79700
Cd273      Cd  0.30515293  0.90103399  0.30953355     1.37500
O274        O  0.34154884  0.89069898  0.35743773    -0.55300
O275        O  0.30496818  0.95936034  0.33396208    -0.54100
C276        C  0.32900844  0.85733931  0.25559579     0.79700
O277        O  0.29235051  0.95828153  0.28133678    -0.56500
O278        O  0.36592751  0.90607599  0.31072502    -0.54900
O279        O  0.24472495  0.88503538  0.31894739    -0.54900
O280        O  0.33404965  0.85104481  0.28633215    -0.54100
C281        C  0.45585301  0.89898799  0.39091528     0.89000
C282        C  0.45767405  0.87956293  0.42419090    -0.51200
C283        C  0.48399500  0.88964273  0.44388398     0.12000
C284        C  0.50584993  0.91795316  0.42876373     0.22900
C285        C  0.45441451  0.93635399  0.40085435    -0.51900
C286        C  0.48060561  0.94617622  0.42067406     0.12100
C287        C  0.49028847  0.89426173  0.37397360    -0.51500
C288        C  0.51642214  0.90439932  0.39405380     0.12600
H289        H  0.43885421  0.86127671  0.43232821     0.17100
H290        H  0.52727550  0.92624523  0.44498148     0.02900
H291        H  0.43508968  0.95377784  0.39201988     0.17400
H292        H  0.49365262  0.88490639  0.34838378     0.17200
C293        C  0.51853403  0.09344406  0.39040123     0.89000
C294        C  0.51679110  0.11302348  0.42359683    -0.51200
C295        C  0.49073020  0.10279603  0.44354775     0.12000
C296        C  0.46901732  0.07420362  0.42872612     0.22900
C297        C  0.52041711  0.05614665  0.40049776    -0.51900
C298        C  0.49447333  0.04617588  0.42056532     0.12100
C299        C  0.48393471  0.09776032  0.37370909    -0.51500
C300        C  0.45804447  0.08749244  0.39403119     0.12600
H301        H  0.53547755  0.13155771  0.43148105     0.17100
H302        H  0.44779827  0.06580023  0.44515252     0.02900
H303        H  0.53982828  0.03886291  0.39157161     0.17400
H304        H  0.48028750  0.10703276  0.34812681     0.17200
O305        O  0.45139981  0.19076696  0.20462300    -0.55300
C306        C  0.35304755  0.14846100  0.22977009     0.77400
O307        O  0.35362867  0.20195092  0.13359752    -0.56400
C308        C  0.46972389  0.18579875  0.17872491     0.77300
C309        C  0.39764903  0.11780956  0.13516692     0.79700
Cd310      Cd  0.39469946  0.17725324  0.17474898     1.37500
O311        O  0.37602075  0.17010454  0.23584878    -0.55300
O312        O  0.40448049  0.11752650  0.16635980    -0.54100
C313        C  0.35735336  0.23261659  0.14142672     0.79700
O314        O  0.39037151  0.14588303  0.12169984    -0.56500
O315        O  0.34797698  0.14204614  0.19898208    -0.54900
O316        O  0.45371111  0.17933255  0.15185878    -0.54900
O317        O  0.37796086  0.23847153  0.16532462    -0.54100
O318        O  0.61907965  0.20233101  0.13211522    -0.55300
C319        C  0.58709103  0.11497674  0.14624060     0.77400
O320        O  0.60337180  0.17536014  0.23680151    -0.56400
C321        C  0.61724606  0.23276803  0.14130406     0.77300
C322        C  0.50759499  0.18576106  0.17911068     0.79700
Cd323      Cd  0.58266355  0.17860338  0.17682256     1.37500
O324        O  0.59332295  0.14158106  0.12961278    -0.55300
O325        O  0.52422820  0.17957494  0.15249136    -0.54100
C326        C  0.62734084  0.15496344  0.23010834     0.79700
O327        O  0.52527919  0.19038926  0.20550387    -0.56500
O328        O  0.57614748  0.11796430  0.17610482    -0.54900
O329        O  0.59898439  0.23887824  0.16696063    -0.54900
O330        O  0.63242968  0.14874315  0.19936728    -0.54100
O331        O  0.59840142  0.82313855  0.23528388    -0.55300
C332        C  0.50493391  0.80722806  0.17800991     0.77400
O333        O  0.58449651  0.84668093  0.12094866    -0.56400
C334        C  0.62143615  0.84472269  0.22923831     0.77300
C335        C  0.61753333  0.76037744  0.14078390     0.79700
Cd336      Cd  0.58002338  0.81564771  0.17414457     1.37500
O337        O  0.52323958  0.80173931  0.20381518    -0.55300
O338        O  0.59666997  0.75440619  0.16443230    -0.54100
C339        C  0.57725122  0.87482786  0.13429307     0.79700
O340        O  0.62142588  0.79108630  0.13324262    -0.56500
O341        O  0.52097885  0.81421400  0.15129604    -0.54900
O342        O  0.62670342  0.85095313  0.19844995    -0.54900
O343        O  0.57035796  0.87527694  0.16547272    -0.54100
O344        O  0.38138032  0.85053744  0.12803218    -0.55300
C345        C  0.35690421  0.75992619  0.14110632     0.77400
O346        O  0.44930266  0.80237567  0.20463303    -0.56400
C347        C  0.38779790  0.87733129  0.14430399     0.77300
C348        C  0.34760139  0.83886905  0.22916019     0.79700
Cd349      Cd  0.39194318  0.81430202  0.17589994     1.37500
O350        O  0.35530832  0.79025339  0.13154054    -0.55300
O351        O  0.34270310  0.84525461  0.19842382    -0.54100
C352        C  0.46705153  0.80720818  0.17832141     0.79700
O353        O  0.37125980  0.81811857  0.23583412    -0.56500
O354        O  0.37516768  0.75399814  0.16679622    -0.54900
O355        O  0.39868925  0.87471978  0.17421739    -0.54900
O356        O  0.45046753  0.81351713  0.15170792    -0.54100
C357        C  0.39133551  0.96497217  0.09452781     0.89000
C358        C  0.37129583  0.96699938  0.06163544    -0.51200
C359        C  0.38097342  0.99347221  0.04196790     0.12000
C360        C  0.40952560  0.01525664  0.05672459     0.22900
C361        C  0.42849846  0.96363792  0.08390579    -0.51900
C362        C  0.43791630  0.98995813  0.06408557     0.12100
C363        C  0.38685816  0.99925440  0.11181194    -0.51500
C364        C  0.39653921  0.02554803  0.09174187     0.12600
H365        H  0.35295752  0.94815540  0.05365114     0.17100
H366        H  0.41747770  0.03680805  0.04051598     0.02900
H367        H  0.44610106  0.94426467  0.09227251     0.17400
H368        H  0.37779158  0.00242347  0.13753479     0.17200
C369        C  0.58409889  0.02778530  0.09580064     0.89000
C370        C  0.60424901  0.02642300  0.06290911    -0.51200
C371        C  0.59454063  0.00042821  0.04259339     0.12000
C372        C  0.56591455  0.97838199  0.05681344     0.22900
C373        C  0.54697763  0.02944059  0.08507087    -0.51900
C374        C  0.53756869  0.00359120  0.06462926     0.12100
C375        C  0.58842862  0.99313358  0.11232483    -0.51500
C376        C  0.57876103  0.96730721  0.09164556     0.12600
H377        H  0.62264740  0.04539731  0.05540040     0.17100
H378        H  0.55795524  0.95720030  0.04012007     0.02900
H379        H  0.52939844  0.04869642  0.09376504     0.17400
H380        H  0.59736253  0.98938781  0.13801067     0.17200
O381        O  0.35588931  0.20312444  0.85391348    -0.55300
C382        C  0.38650218  0.11568755  0.84008981     0.77400
O383        O  0.37158171  0.17504614  0.74872544    -0.56400
C384        C  0.35725375  0.23344032  0.84429870     0.77300
C385        C  0.46632862  0.18636533  0.80627804     0.79700
Cd386      Cd  0.39140745  0.17907730  0.80887259     1.37500
O387        O  0.38071020  0.14247493  0.85659208    -0.55300
O388        O  0.44984601  0.17928168  0.83275184    -0.54100
C389        C  0.34707269  0.15531958  0.75543227     0.79700
O390        O  0.44855513  0.19162646  0.78007952    -0.56500
O391        O  0.39704842  0.11838003  0.81006015    -0.54900
O392        O  0.37489757  0.23939696  0.81818156    -0.54900
O393        O  0.34126009  0.14997141  0.78621223    -0.54100
O394        O  0.58157457  0.14678513  0.86406058    -0.55300
C395        C  0.61702235  0.23364638  0.84436881     0.77400
O396        O  0.59867946  0.17217011  0.75037708    -0.56400
C397        C  0.57570579  0.11868759  0.84991218     0.77300
C398        C  0.50414251  0.18679607  0.80667985     0.79700
Cd399      Cd  0.57898954  0.17865274  0.81113734     1.37500
O400        O  0.62039857  0.20293777  0.85217222    -0.55300
O401        O  0.52010029  0.18074600  0.83366173    -0.54100
C402        C  0.62098731  0.14989642  0.75670071     0.79700
O403        O  0.52247271  0.19171704  0.78077380    -0.56500
O404        O  0.59629507  0.23976230  0.82064492    -0.54900
O405        O  0.57018478  0.11866255  0.81846349    -0.54900
O406        O  0.62513234  0.14283157  0.78747704    -0.54100
O407        O  0.45175453  0.80148392  0.78152676    -0.55300
C408        C  0.35322465  0.84375683  0.75684805     0.77400
O409        O  0.35339792  0.79066665  0.85224045    -0.56400
C410        C  0.47001246  0.80708633  0.80735421     0.77300
C411        C  0.39845483  0.87482063  0.85058169     0.79700
Cd412      Cd  0.39507688  0.81506667  0.81149964     1.37500
O413        O  0.37583926  0.82176897  0.75060814    -0.55300
O414        O  0.40367763  0.87502222  0.81908082    -0.54100
C415        C  0.35725098  0.75994178  0.84470066     0.79700
O416        O  0.39266178  0.84665552  0.86461317    -0.56500
O417        O  0.34869071  0.85056871  0.78763323    -0.54900
O418        O  0.45396074  0.81380799  0.83412036    -0.54900
O419        O  0.37826532  0.75391436  0.82120560    -0.54100
O420        O  0.61837801  0.79043812  0.85469247    -0.55300
C421        C  0.58861734  0.87792636  0.84117688     0.77400
O422        O  0.60177169  0.81952480  0.74949110    -0.56400
C423        C  0.61747883  0.76025431  0.84460634     0.77300
C424        C  0.50784585  0.80749403  0.80708685     0.79700
Cd425      Cd  0.58285547  0.81468462  0.80975599     1.37500
O426        O  0.59328133  0.85098589  0.85777017    -0.55300
O427        O  0.52425696  0.81508718  0.83346995    -0.54100
C428        C  0.62701684  0.83830570  0.75616102     0.79700
O429        O  0.52571439  0.80168010  0.78107122    -0.56500
O430        O  0.57862676  0.87553161  0.81093260    -0.54900
O431        O  0.59997253  0.75443992  0.81836425    -0.54900
O432        O  0.63356746  0.84279116  0.78693604    -0.54100
C433        C  0.39082450  0.02812111  0.88993253     0.89000
C434        C  0.37110456  0.02607459  0.92301854    -0.51200
C435        C  0.38120636  0.99981413  0.94274151     0.12000
C436        C  0.40986255  0.97824299  0.92787970     0.22900
C437        C  0.42809409  0.02987606  0.90020768    -0.51900
C438        C  0.43795653  0.00374045  0.92007953     0.12100
C439        C  0.38654177  0.99365251  0.87290590    -0.51500
C440        C  0.39669732  0.96757749  0.89305561     0.12600
H441        H  0.35254872  0.04469071  0.93100918     0.17100
H442        H  0.41816753  0.95688207  0.94416182     0.02900
H443        H  0.44543055  0.04936083  0.89155706     0.17400
H444        H  0.37728474  0.99022084  0.84728763     0.17200
C445        C  0.58526842  0.96560230  0.89078867     0.89000
C446        C  0.60507152  0.96838318  0.92377457    -0.51200
C447        C  0.59476205  0.99485841  0.94314301     0.12000
C448        C  0.56587114  0.01592455  0.92798464     0.22900
C449        C  0.54805155  0.96367348  0.90122419    -0.51900
C450        C  0.53798903  0.99005217  0.92067098     0.12100
C451        C  0.58915791  0.99981627  0.87318202    -0.51500
C452        C  0.57880912  0.02612600  0.89293201     0.12600
H453        H  0.62372279  0.94999122  0.93204679     0.17100
H454        H  0.55740211  0.03748347  0.94392792     0.02900
H455        H  0.53085033  0.94393841  0.89287188     0.17400
H456        H  0.59823403  0.00289506  0.84745706     0.17200
O457        O  0.34811379  0.70276924  0.12465193    -0.55300
C458        C  0.33428562  0.61514398  0.09323841     0.77400
O459        O  0.24338583  0.67524097  0.10889983    -0.56400
C460        C  0.33858422  0.73311256  0.12304780     0.77300
C461        C  0.30132024  0.68595261  0.01353537     0.79700
Cd462      Cd  0.30348188  0.67871804  0.08850148     1.37500
O463        O  0.35090175  0.64182584  0.09922722    -0.55300
O464        O  0.32800016  0.68001611  0.03017339    -0.54100
C465        C  0.25010630  0.65496804  0.13294516     0.79700
O466        O  0.27482837  0.69022137  0.03116669    -0.56500
O467        O  0.30433055  0.61801885  0.08247675    -0.54900
O468        O  0.31270705  0.73904588  0.10503350    -0.54900
O469        O  0.28088561  0.64898799  0.13821305    -0.54100
O470        O  0.35901274  0.64647346  0.89766086    -0.55300
C471        C  0.33885026  0.73282819  0.86297727     0.77400
O472        O  0.24465295  0.67080879  0.88179084    -0.56400
C473        C  0.34532120  0.61820990  0.90373661     0.77300
C474        C  0.30172957  0.68610877  0.97571297     0.79700
Cd475      Cd  0.30573451  0.67764551  0.90080130     1.37500
O476        O  0.34639642  0.70211079  0.85910921    -0.55300
O477        O  0.32870806  0.68008340  0.95970103    -0.54100
C478        C  0.25075018  0.64875451  0.85921701     0.79700
O479        O  0.27573212  0.69072530  0.95743138    -0.56500
O480        O  0.31524679  0.73882887  0.88388387    -0.54900
O481        O  0.31391070  0.61774717  0.90958766    -0.54900
O482        O  0.28153545  0.64187302  0.85462953    -0.54100
O483        O  0.24507261  0.32194114  0.10463580    -0.55300
C484        C  0.30247266  0.30665882  0.01055569     0.77400
O485        O  0.35936508  0.34656472  0.09002412    -0.56400
C486        C  0.25111286  0.34444040  0.12678123     0.77300
C487        C  0.33918129  0.25984018  0.12309214     0.79700
Cd488      Cd  0.30618437  0.31522100  0.08545236     1.37500
O489        O  0.27650925  0.30149615  0.02875854    -0.55300
O490        O  0.31610403  0.25392387  0.10158999    -0.54100
C491        C  0.34597772  0.37452507  0.08211586     0.79700
O492        O  0.34633808  0.29057168  0.12757407    -0.56500
O493        O  0.32927104  0.31324504  0.02664811    -0.54900
O494        O  0.28186333  0.35162003  0.13107984    -0.54900
O495        O  0.31487301  0.37467356  0.07480948    -0.54100
O496        O  0.34918982  0.29041962  0.86164997    -0.55300
C497        C  0.33532679  0.37792556  0.89271713     0.77400
O498        O  0.24424469  0.31913859  0.87850656    -0.56400
C499        C  0.33928464  0.26017567  0.86276144     0.77300
C500        C  0.30221884  0.30684694  0.97272829     0.79700
Cd501      Cd  0.30449362  0.31441534  0.89778132     1.37500
O502        O  0.35195612  0.35119872  0.88701835    -0.55300
O503        O  0.32878003  0.31364709  0.95621923    -0.54100
C504        C  0.25098601  0.33825301  0.85354448     0.79700
O505        O  0.27595803  0.30178065  0.95496771    -0.56500
O506        O  0.30537787  0.37514646  0.90352717    -0.54900
O507        O  0.31331637  0.25424867  0.88064993    -0.54900
O508        O  0.28180247  0.34303920  0.84732041    -0.54100
C509        C  0.38539641  0.46539023  0.89511158     0.89000
C510        C  0.41834782  0.46722676  0.87509193    -0.51200
C511        C  0.43824907  0.49353176  0.88485018     0.12000
C512        C  0.42361985  0.51534683  0.91346446     0.22900
C513        C  0.39600688  0.46389493  0.93225342    -0.51900
C514        C  0.41597520  0.49007819  0.94178235     0.12100
C515        C  0.36837895  0.49983069  0.89076264    -0.51500
C516        C  0.38865446  0.52594301  0.90056602     0.12600
H517        H  0.42616022  0.44841523  0.85666759     0.17100
H518        H  0.43999023  0.53675552  0.92150176     0.02900
H519        H  0.38730863  0.44465320  0.94982941     0.17400
H520        H  0.34259202  0.50321214  0.88190838     0.17200
C521        C  0.38437888  0.52783453  0.08893659     0.89000
C522        C  0.41769453  0.52618930  0.10836262    -0.51200
C523        C  0.43766876  0.50016458  0.09807563     0.12000
C524        C  0.42278131  0.47839588  0.06961218     0.22900
C525        C  0.39434604  0.52969724  0.05161243    -0.51900
C526        C  0.41450152  0.50381988  0.04162229     0.12100
C527        C  0.36778545  0.49319367  0.09338106    -0.51500
C528        C  0.38816876  0.46734529  0.08310119     0.12600
H529        H  0.42563749  0.54491743  0.12682134     0.17100
H530        H  0.43924831  0.45721403  0.06118000     0.02900
H531        H  0.38546952  0.54916869  0.03438893     0.17400
H532        H  0.34228887  0.48947577  0.10290942     0.17200
O533        O  0.61648460  0.64618091  0.08914856    -0.55300
C534        C  0.63583902  0.73325347  0.12242043     0.77400
O535        O  0.73023126  0.67148289  0.10465273    -0.56400
C536        C  0.63020671  0.61831461  0.08146094     0.77300
C537        C  0.67321586  0.68687889  0.01004645     0.79700
Cd538      Cd  0.66929780  0.67808733  0.08487299     1.37500
O539        O  0.62833840  0.70252680  0.12632022    -0.55300
O540        O  0.64640189  0.68023210  0.02608262    -0.54100
C541        C  0.72393878  0.64896919  0.12671054     0.79700
O542        O  0.69916120  0.69199921  0.02828682    -0.56500
O543        O  0.65940941  0.73926625  0.10148483    -0.54900
O544        O  0.66134086  0.61846184  0.07426209    -0.54900
O545        O  0.69314823  0.64180326  0.13069759    -0.54100
O546        O  0.62345070  0.64234893  0.88679056    -0.55300
C547        C  0.63576947  0.73349501  0.86271172     0.77400
O548        O  0.69972135  0.69180027  0.95444948    -0.56400
C549        C  0.64006488  0.61567496  0.89277945     0.77300
C550        C  0.72435760  0.65545840  0.85302149     0.79700
Cd551      Cd  0.67094422  0.67924691  0.89736435     1.37500
O552        O  0.62644986  0.70310214  0.86089084    -0.55300
O553        O  0.69354932  0.65012420  0.84724304    -0.54100
C554        C  0.67346472  0.68677177  0.97223347     0.79700
O555        O  0.73111832  0.67508054  0.87758955    -0.56500
O556        O  0.66142587  0.73954046  0.88100159    -0.54900
O557        O  0.66998492  0.61856969  0.90363441    -0.54900
O558        O  0.64686040  0.68005252  0.95576499    -0.54100
O559        O  0.62559286  0.28979031  0.12420579    -0.55300
C560        C  0.63906030  0.37723628  0.09330629     0.77400
O561        O  0.73044170  0.31762935  0.10839869    -0.56400
C562        C  0.63535124  0.25950824  0.12292115     0.77300
C563        C  0.67317885  0.30704759  0.01318919     0.79700
Cd564      Cd  0.67032647  0.31393007  0.08821011     1.37500
O565        O  0.62252989  0.35044238  0.09901781    -0.55300
O566        O  0.64638174  0.31307012  0.02961691    -0.54100
C567        C  0.72375497  0.33787628  0.13247472     0.79700
O568        O  0.69946475  0.30253393  0.03104818    -0.56500
O569        O  0.66908132  0.37457164  0.08268840    -0.54900
O570        O  0.66130788  0.25359515  0.10500652    -0.54900
O571        O  0.69297851  0.34375448  0.13787343    -0.54100
O572        O  0.73023822  0.32194826  0.88072264    -0.55300
C573        C  0.67308858  0.30698442  0.97535503     0.77400
O574        O  0.61635410  0.34691031  0.89734128    -0.56400
C575        C  0.72397615  0.34428737  0.85847784     0.77300
C576        C  0.63566675  0.26062486  0.86260331     0.79700
Cd577      Cd  0.66933308  0.31543740  0.90041066     1.37500
O578        O  0.69920246  0.30237230  0.95721769    -0.55300
O579        O  0.65946056  0.25443773  0.88323813    -0.54100
C580        C  0.63021401  0.37503465  0.90369232     0.79700
O581        O  0.62817022  0.29138398  0.85898059    -0.56500
O582        O  0.64621939  0.31302679  0.95918598    -0.54900
O583        O  0.69318758  0.35140271  0.85434333    -0.54900
O584        O  0.66161854  0.37528296  0.90959947    -0.54100
C585        C  0.59028389  0.52796824  0.89544697     0.89000
C586        C  0.55747412  0.52592133  0.87520858    -0.51200
C587        C  0.53759760  0.49958371  0.88492345     0.12000
C588        C  0.55210909  0.47794233  0.91370026     0.22900
C589        C  0.57940868  0.52956191  0.93250946    -0.51900
C590        C  0.55945071  0.50335204  0.94197543     0.12100
C591        C  0.60745781  0.49357221  0.89132420    -0.51500
C592        C  0.58719131  0.46743080  0.90106369     0.12600
H593        H  0.54970108  0.54465453  0.85669152     0.17100
H594        H  0.53576069  0.45650120  0.92169345     0.02900
H595        H  0.58788830  0.54891274  0.95007620     0.17400
H596        H  0.63328621  0.49023686  0.88258527     0.17200
C597        C  0.58985037  0.46508103  0.08903838     0.89000
C598        C  0.55665407  0.46753409  0.10855861    -0.51200
C599        C  0.53722794  0.49396031  0.09827167     0.12000
C600        C  0.55251136  0.51530182  0.06969825     0.22900
C601        C  0.57973544  0.46331785  0.05174958    -0.51900
C602        C  0.56013798  0.48961276  0.04175294     0.12100
C603        C  0.60724552  0.49935712  0.09332228    -0.51500
C604        C  0.58741587  0.52562155  0.08302459     0.12600
H605        H  0.54831783  0.44898267  0.12701961     0.17100
H606        H  0.53649411  0.53681768  0.06126002     0.02900
H607        H  0.58815776  0.44363012  0.03454756     0.17400
H608        H  0.63285416  0.50252975  0.10273706     0.17200
O609        O  0.23003232  0.38587126  0.16680200    -0.55300
C610        C  0.17235119  0.47918233  0.18257724     0.77400
O611        O  0.11566313  0.40043407  0.14244539    -0.56400
C612        C  0.22398454  0.36290432  0.14514256     0.77300
C613        C  0.13552777  0.36669566  0.22926428     0.79700
Cd614      Cd  0.16875940  0.40427637  0.17395900     1.37500
O615        O  0.19819753  0.46097164  0.18827755    -0.55300
O616        O  0.15860650  0.38819017  0.23525202    -0.54100
C617        C  0.12933279  0.40719953  0.11433744     0.79700
O618        O  0.12858084  0.36211684  0.19851912    -0.56500
O619        O  0.14570640  0.46309721  0.17536090    -0.54900
O620        O  0.19318988  0.35783135  0.13868441    -0.54900
O621        O  0.16061031  0.41375374  0.11412582    -0.54100
O622        O  0.12520315  0.62749148  0.19919203    -0.55300
C623        C  0.13959318  0.59669400  0.11151939     0.77400
O624        O  0.23047998  0.61151118  0.17076854    -0.56400
C625        C  0.13524498  0.62654480  0.22938391     0.77300
C626        C  0.17258715  0.51701412  0.18248697     0.79700
Cd627      Cd  0.17029205  0.59195774  0.17510917     1.37500
O628        O  0.12294357  0.60264689  0.13817093    -0.55300
O629        O  0.14615475  0.53349975  0.17517638    -0.54100
C630        C  0.22375836  0.63636810  0.15151069     0.79700
O631        O  0.19871391  0.53480331  0.18815499    -0.56500
O632        O  0.16959383  0.58605236  0.11441429    -0.54900
O633        O  0.16145853  0.60899114  0.23522451    -0.54900
O634        O  0.19294741  0.64245692  0.14651294    -0.54100
O635        O  0.22975686  0.60753418  0.81897063    -0.55300
C636        C  0.17281597  0.51393563  0.80372086     0.77400
O637        O  0.11528288  0.59251645  0.84289384    -0.56400
C638        C  0.22365112  0.63041730  0.84069124     0.77300
C639        C  0.13535404  0.62635910  0.75631651     0.79700
Cd640      Cd  0.16860210  0.58892850  0.81171075     1.37500
O641        O  0.19853753  0.53231463  0.79800536    -0.55300
O642        O  0.15914055  0.60560943  0.75047224    -0.54100
C643        C  0.12894096  0.58592525  0.87104632     0.79700
O644        O  0.12754276  0.63012496  0.78696691    -0.56500
O645        O  0.14601425  0.52987542  0.81064647    -0.54900
O646        O  0.19283335  0.63547750  0.84707286    -0.54900
O647        O  0.16030587  0.57985625  0.87141587    -0.54100
O648        O  0.12641204  0.36502521  0.78670372    -0.55300
C649        C  0.14006621  0.39539694  0.87403634     0.77400
O650        O  0.23138619  0.38091143  0.81468131    -0.56400
C651        C  0.13581495  0.36679364  0.75635461     0.77300
C652        C  0.17330111  0.47609188  0.80396707     0.79700
Cd653      Cd  0.17116559  0.40102113  0.81080639     1.37500
O654        O  0.12355576  0.38969362  0.84723940    -0.55300
O655        O  0.14688686  0.45945063  0.81099777    -0.54100
C656        C  0.22466573  0.35679439  0.83487252     0.79700
O657        O  0.19957389  0.45843772  0.79856807    -0.56500
O658        O  0.16995684  0.40642031  0.87142429    -0.54900
O659        O  0.16173558  0.38475683  0.75042800    -0.54900
O660        O  0.19387832  0.35134968  0.84061620    -0.54100
C661        C  0.09010968  0.39847971  0.96129993     0.89000
C662        C  0.05683172  0.37899641  0.96295611    -0.51200
C663        C  0.03689818  0.38918459  0.98904063     0.12000
C664        C  0.05183187  0.41761092  0.01087465     0.22900
C665        C  0.08009812  0.43582046  0.95958778    -0.51900
C666        C  0.06002621  0.44571152  0.98555396     0.12100
C667        C  0.10682260  0.39397703  0.99585339    -0.51500
C668        C  0.08652959  0.40420729  0.02178102     0.12600
H669        H  0.04882095  0.36068963  0.94411254     0.17100
H670        H  0.03541746  0.42597616  0.03211612     0.02900
H671        H  0.08899219  0.45315305  0.94022464     0.17400
H672        H  0.13242949  0.38469233  0.99943987     0.17200
C673        C  0.08956659  0.59262366  0.02407534     0.89000
C674        C  0.05646071  0.61237657  0.02219087    -0.51200
C675        C  0.03664225  0.60239235  0.99593954     0.12000
C676        C  0.05144823  0.57381826  0.97422663     0.22900
C677        C  0.07926019  0.55537421  0.02569435    -0.51900
C678        C  0.05932818  0.54562398  0.99956351     0.12100
C679        C  0.10651444  0.59703571  0.98961606    -0.51500
C680        C  0.08626843  0.58703394  0.96356419     0.12600
H681        H  0.04856612  0.63092931  0.04084560     0.17100
H682        H  0.03511401  0.56560438  0.95286830     0.02900
H683        H  0.08802981  0.53793978  0.04502325     0.17400
H684        H  0.13214458  0.60630915  0.98616333     0.17200
O685        O  0.84825054  0.36481197  0.19870446    -0.55300
C686        C  0.83477944  0.39663499  0.11131831     0.77400
O687        O  0.74340664  0.38127788  0.17035320    -0.56400
C688        C  0.83856984  0.36628567  0.22899094     0.77300
C689        C  0.80114491  0.47582027  0.18231956     0.79700
Cd690      Cd  0.80355803  0.40090721  0.17469757     1.37500
O691        O  0.85131823  0.39088813  0.13807767    -0.55300
O692        O  0.82757472  0.45934117  0.17499077    -0.54100
C693        C  0.75012465  0.35652102  0.15095742     0.79700
O694        O  0.77497732  0.45803100  0.18781380    -0.56500
O695        O  0.80459950  0.40681336  0.11401204    -0.54900
O696        O  0.81266515  0.38427210  0.23489556    -0.54900
O697        O  0.78093360  0.35055299  0.14578943    -0.54100
O698        O  0.77567134  0.53194523  0.18819441    -0.55300
C699        C  0.75082672  0.63040400  0.14527859     0.77400
O700        O  0.84660393  0.62985377  0.19885265    -0.56400
C701        C  0.80149480  0.51365450  0.18264740     0.77300
C702        C  0.84459015  0.58563108  0.11441300     0.79700
Cd703      Cd  0.80552702  0.58859880  0.17426485     1.37500
O704        O  0.74448040  0.60742020  0.16682728    -0.55300
O705        O  0.81323745  0.57945754  0.11435101    -0.54100
C706        C  0.83875149  0.62634090  0.22952000     0.79700
O707        O  0.85852032  0.59201989  0.14248866    -0.56500
O708        O  0.78169360  0.63534489  0.13906951    -0.54900
O709        O  0.82827508  0.52967291  0.17580429    -0.54900
O710        O  0.81490594  0.60568317  0.23547506    -0.54100
O711        O  0.77559308  0.46156678  0.79815986    -0.55300
C712        C  0.75090594  0.36279288  0.83993202     0.77400
O713        O  0.84715727  0.36409186  0.78691823    -0.56400
C714        C  0.80162292  0.47977908  0.80296772     0.77300
C715        C  0.84443248  0.40816016  0.87097241     0.79700
Cd716      Cd  0.80553482  0.40484334  0.81127335     1.37500
O717        O  0.74460759  0.38556288  0.81815021    -0.55300
O718        O  0.81323662  0.41508040  0.87091255    -0.54100
C719        C  0.83917471  0.36740368  0.75626187     0.79700
O720        O  0.85819792  0.40063965  0.84311011    -0.56500
O721        O  0.78174237  0.35809409  0.84646431    -0.54900
O722        O  0.82852807  0.46368029  0.80907787    -0.54900
O723        O  0.81509922  0.38777468  0.75025219    -0.54100
O724        O  0.85141084  0.60440351  0.84685055    -0.55300
C725        C  0.83908959  0.62693163  0.75579438     0.77400
O726        O  0.77508125  0.53540687  0.79846668    -0.56400
C727        C  0.83506363  0.59789727  0.87355673     0.77300
C728        C  0.75066220  0.63693337  0.83433075     0.79700
Cd729      Cd  0.80398517  0.59261195  0.81024883     1.37500
O730        O  0.84913676  0.62789981  0.78597553    -0.55300
O731        O  0.78146873  0.64254869  0.83983019    -0.54100
C732        C  0.80139048  0.51761839  0.80316319     0.79700
O733        O  0.74388996  0.61263868  0.81437226    -0.56500
O734        O  0.81274031  0.60954820  0.75000104    -0.54900
O735        O  0.80540420  0.58631637  0.87077060    -0.54900
O736        O  0.82807992  0.53411486  0.80948451    -0.54100
C737        C  0.88494960  0.40086386  0.02382531     0.89000
C738        C  0.91781067  0.38075551  0.02144845    -0.51200
C739        C  0.93741908  0.39061149  0.99498467     0.12000
C740        C  0.92263824  0.41940349  0.97355939     0.22900
C741        C  0.89569408  0.43798560  0.02544820    -0.51900
C742        C  0.91541891  0.44758888  0.99910974     0.12100
C743        C  0.86751580  0.39675506  0.98958634    -0.51500
C744        C  0.88752383  0.40662556  0.96332220     0.12600
H745        H  0.92579278  0.36216465  0.04002475     0.17100
H746        H  0.93877848  0.42750583  0.95201285     0.02900
H747        H  0.88735749  0.45545639  0.04493974     0.17400
H748        H  0.84173849  0.38779335  0.98643320     0.17200
C749        C  0.88441728  0.59444544  0.96125466     0.89000
C750        C  0.91749942  0.61421955  0.96346208    -0.51200
C751        C  0.93720020  0.60404724  0.98972863     0.12000
C752        C  0.92224867  0.57536626  0.01117838     0.22900
C753        C  0.89480265  0.55721859  0.95941893    -0.51900
C754        C  0.91465602  0.54736370  0.98555438     0.12100
C755        C  0.86722988  0.59858460  0.99563407    -0.51500
C756        C  0.88730857  0.58840782  0.02174524     0.12600
H757        H  0.92562284  0.63264274  0.94478243     0.17100
H758        H  0.93847301  0.56702498  0.03256945     0.02900
H759        H  0.88634665  0.53993344  0.93981931     0.17400
H760        H  0.84153263  0.60770824  0.99897531     0.17200
O761        O  0.18168886  0.20944409  0.45751279    -0.55300
C762        C  0.13984333  0.23379117  0.35923033     0.77400
O763        O  0.19317743  0.13811045  0.35951593    -0.56400
C764        C  0.17716403  0.18344209  0.47580492     0.77300
C765        C  0.10959430  0.13955418  0.40423427     0.79700
Cd766      Cd  0.16896743  0.17914322  0.40094001     1.37500
O767        O  0.16218109  0.24009583  0.38147704    -0.55300
O768        O  0.10900556  0.17110814  0.40920292    -0.54100
C769        C  0.22393845  0.14555931  0.36326242     0.79700
O770        O  0.13793579  0.12578111  0.39872091    -0.56500
O771        O  0.13292715  0.20297491  0.35495168    -0.54900
O772        O  0.17134641  0.15641455  0.45981904    -0.54900
O773        O  0.23008647  0.16933006  0.38393973    -0.54100
O774        O  0.19377163  0.13589512  0.62345752    -0.55300
C775        C  0.10659102  0.14999287  0.59404191     0.77400
O776        O  0.16577501  0.24168496  0.60836840    -0.56400
C777        C  0.22401856  0.14582303  0.62279583     0.77300
C778        C  0.17693850  0.18383500  0.51360825     0.79700
Cd779      Cd  0.16981834  0.18144221  0.58856969     1.37500
O780        O  0.13351240  0.13384214  0.60010148    -0.55300
O781        O  0.17106245  0.15712598  0.53019843    -0.54100
C782        C  0.14602138  0.23493620  0.63282940     0.79700
O783        O  0.18114422  0.21029667  0.53127706    -0.56500
O784        O  0.10901645  0.17984814  0.58290424    -0.54900
O785        O  0.23000590  0.17241134  0.60585075    -0.54900
O786        O  0.14071970  0.20413491  0.63863409    -0.54100
O787        O  0.81309673  0.23913076  0.60436696    -0.55300
C788        C  0.79754112  0.18200949  0.51052208     0.77400
O789        O  0.83841342  0.12525953  0.59016561    -0.56400
C790        C  0.83505354  0.23312033  0.62704167     0.77300
C791        C  0.75122631  0.14490555  0.62331987     0.79700
Cd792      Cd  0.80643264  0.17804312  0.58543943     1.37500
O793        O  0.79282333  0.20800813  0.52878453    -0.55300
O794        O  0.74529467  0.16862500  0.60253868    -0.54100
C795        C  0.86627403  0.13883663  0.58222559     0.79700
O796        O  0.78190835  0.13704816  0.62689706    -0.56500
O797        O  0.80372721  0.15509473  0.52657132    -0.54900
O798        O  0.84194587  0.20237059  0.63174252    -0.54900
O799        O  0.86612524  0.16988204  0.57468666    -0.54100
O800        O  0.78104253  0.13484668  0.36207742    -0.55300
C801        C  0.86901562  0.14891633  0.39330435     0.77400
O802        O  0.80899477  0.23970334  0.37722688    -0.56400
C803        C  0.75084042  0.14490306  0.36322158     0.77300
C804        C  0.79772848  0.18230591  0.47267912     0.79700
Cd805      Cd  0.80534381  0.17974110  0.39773026     1.37500
O806        O  0.84238860  0.13229983  0.38705017    -0.55300
O807        O  0.80401640  0.15562690  0.45617006    -0.54100
C808        C  0.82896885  0.23290356  0.35295042     0.79700
O809        O  0.79321888  0.20865938  0.45490821    -0.56500
O810        O  0.86601354  0.17883801  0.40412061    -0.54900
O811        O  0.74510463  0.17107239  0.38086285    -0.54900
O812        O  0.83484563  0.20210512  0.34767740    -0.54100
C813        C  0.95681246  0.09920622  0.39695276     0.89000
C814        C  0.95877482  0.06634714  0.37681490    -0.51200
C815        C  0.98507227  0.04644574  0.38654323     0.12000
C816        C  0.00683027  0.06102247  0.41522584     0.22900
C817        C  0.95526782  0.08845229  0.43405467    -0.51900
C818        C  0.98147533  0.06848465  0.44353717     0.12100
C819        C  0.99122413  0.11631525  0.39271442    -0.51500
C820        C  0.01737177  0.09606100  0.40244944     0.12600
H821        H  0.93996209  0.05853264  0.35838546     0.17100
H822        H  0.02826600  0.04466919  0.42321189     0.02900
H823        H  0.93592055  0.09696340  0.45160930     0.17400
H824        H  0.99457354  0.14209354  0.38384838     0.17200
C825        C  0.01955558  0.09922321  0.59044027     0.89000
C826        C  0.01748580  0.06609324  0.61014563    -0.51200
C827        C  0.99119890  0.04635777  0.59999752     0.12000
C828        C  0.96966767  0.06127506  0.57135920     0.22900
C829        C  0.02136007  0.08891518  0.55320571    -0.51900
C830        C  0.99524207  0.06900817  0.54333254     0.12100
C831        C  0.98510083  0.11626519  0.59467760    -0.51500
C832        C  0.95901419  0.09614233  0.58450190     0.12600
H833        H  0.03610803  0.05807874  0.62866807     0.17100
H834        H  0.94829153  0.04500790  0.56302202     0.02900
H835        H  0.04090523  0.09750389  0.53591481     0.17400
H836        H  0.98169093  0.14191648  0.60389100     0.17200
O837        O  0.09339845  0.36162014  0.63832780    -0.55300
C838        C  0.11733498  0.34893730  0.72954845     0.77400
O839        O  0.02533830  0.28531584  0.68719012    -0.56400
C840        C  0.08650112  0.34527919  0.61171316     0.77300
C841        C  0.12723156  0.26120212  0.65130507     0.79700
Cd842      Cd  0.08248563  0.31424515  0.67518513     1.37500
O843        O  0.11845168  0.35896395  0.69935746    -0.55300
O844        O  0.13258561  0.29202364  0.64563676    -0.54100
C845        C  0.00754094  0.31167328  0.68276661     0.79700
O846        O  0.10290467  0.25432331  0.67119012    -0.56500
O847        O  0.09943679  0.32294790  0.73536147    -0.54900
O848        O  0.07525509  0.31550703  0.61466211    -0.54900
O849        O  0.02402676  0.33841784  0.67667122    -0.54100
O850        O  0.87574704  0.25430657  0.66772018    -0.55300
C851        C  0.96969768  0.31185992  0.68286411     0.77400
O852        O  0.88924037  0.36765416  0.64173615    -0.56400
C853        C  0.85332915  0.26028324  0.64548318     0.77300
C854        C  0.85747976  0.34898577  0.72920441     0.79700
Cd855      Cd  0.89484371  0.31537964  0.67409073     1.37500
O856        O  0.95155366  0.28574722  0.68744401    -0.55300
O857        O  0.87865415  0.32563585  0.73526906    -0.54100
C858        C  0.89783102  0.35401502  0.61411969     0.79700
O859        O  0.85324134  0.35615087  0.69846309    -0.56500
O860        O  0.95354304  0.33874545  0.67676419    -0.54900
O861        O  0.84873478  0.29101343  0.63845338    -0.54900
O862        O  0.90619448  0.32318593  0.61460281    -0.54100
O863        O  0.08342598  0.36846599  0.34289150    -0.55300
C864        C  0.11706630  0.34852523  0.25640888     0.77400
O865        O  0.09817838  0.25432260  0.31924088    -0.56400
C866        C  0.07643492  0.35489256  0.37099171     0.77300
C867        C  0.00420695  0.31144051  0.30325877     0.79700
Cd868      Cd  0.07932284  0.31534420  0.31161935     1.37500
O869        O  0.12001199  0.35694165  0.28698630    -0.55300
O870        O  0.02019323  0.33797883  0.31103009    -0.54100
C871        C  0.12119462  0.26067835  0.34074813     0.79700
O872        O  0.02257403  0.28586118  0.29689397    -0.56500
O873        O  0.09691777  0.32422601  0.25055018    -0.54900
O874        O  0.06985054  0.32362287  0.37130384    -0.54900
O875        O  0.12609343  0.29154382  0.34696643    -0.54100
O876        O  0.88013707  0.36043562  0.34684429    -0.55300
C877        C  0.85670228  0.34808168  0.25578779     0.77400
O878        O  0.94863217  0.28498522  0.29707503    -0.56400
C879        C  0.88557227  0.34373991  0.37357124     0.77300
C880        C  0.84729556  0.25923078  0.33408285     0.79700
Cd881      Cd  0.89122214  0.31298945  0.31018713     1.37500
O882        O  0.85468056  0.35735358  0.28616543    -0.55300
O883        O  0.84076869  0.29000964  0.33865102    -0.54100
C884        C  0.96632944  0.31104141  0.30334159     0.79700
O885        O  0.87229474  0.25260221  0.31496188    -0.56500
O886        O  0.87515606  0.32252319  0.24981815    -0.54900
O887        O  0.89635248  0.31378106  0.37085179    -0.54900
O888        O  0.94970417  0.33725833  0.31113459    -0.54100
C889        C  0.08241360  0.39500330  0.52396763     0.89000
C890        C  0.10217845  0.42810110  0.52201668    -0.51200
C891        C  0.09240678  0.44772088  0.49554486     0.12000
C892        C  0.06398499  0.43278212  0.47373646     0.22900
C893        C  0.04515756  0.40530039  0.52524805    -0.51900
C894        C  0.03560768  0.42507000  0.49893816     0.12100
C895        C  0.08710014  0.37784132  0.48964159    -0.51500
C896        C  0.07730145  0.39791292  0.46338706     0.12600
H897        H  0.12059565  0.43612630  0.54075361     0.17100
H898        H  0.05592475  0.44897658  0.45222144     0.02900
H899        H  0.02757846  0.39666463  0.54451227     0.17400
H900        H  0.09641601  0.35219855  0.48641463     0.17200
C901        C  0.88867895  0.39342788  0.46097000     0.89000
C902        C  0.92589454  0.40388616  0.45902053    -0.51200
C903        C  0.93579519  0.42376802  0.48512514     0.12000
C904        C  0.90784708  0.43131448  0.51081709     0.22900
C905        C  0.88466835  0.37625605  0.49533862    -0.51900
C906        C  0.89489149  0.39636228  0.52139364     0.12100
C907        C  0.86884406  0.42646994  0.46321758    -0.51500
C908        C  0.87907395  0.44620428  0.48945167     0.12600
H909        H  0.94314360  0.39544622  0.43937661     0.17100
H910        H  0.91622167  0.44754471  0.53219735     0.02900
H911        H  0.87559803  0.35055377  0.49871339     0.17400
H912        H  0.85033896  0.43453956  0.44459601     0.17200
C913        C  0.97060912  0.43248549  0.48981840    -0.10700
C914        C  0.00072252  0.43296911  0.49343128    -0.12300
C915        C  0.87988441  0.37272292  0.43223525    -0.10700
C916        C  0.88018652  0.35835988  0.40572764    -0.12300
C917        C  0.07663413  0.37370903  0.40162610    -0.10700
C918        C  0.07722028  0.38623334  0.42920041    -0.12300
C919        C  0.89721671  0.37222222  0.58313795    -0.10700
C920        C  0.89593339  0.38457196  0.55551620    -0.12300
C921        C  0.09090490  0.36005533  0.57944857    -0.10700
C922        C  0.09086324  0.37437860  0.55289914    -0.12300
C923        C  0.98681904  0.06026917  0.47837093    -0.10700
C924        C  0.99040603  0.06051355  0.50848285    -0.12300
C925        C  0.90135734  0.13429410  0.38868830    -0.10700
C926        C  0.92795447  0.12001267  0.38860455    -0.12300
C927        C  0.89715672  0.12032204  0.58263311    -0.10700
C928        C  0.92479119  0.10786783  0.58370583    -0.12300
C929        C  0.07458373  0.13483340  0.59909915    -0.10700
C930        C  0.04826339  0.12006079  0.59921134    -0.12300
C931        C  0.07902356  0.12060197  0.40408987    -0.10700
C932        C  0.05154350  0.10784612  0.40318917    -0.12300
C933        C  0.92360991  0.48243569  0.99383958    -0.10700
C934        C  0.92330362  0.51255235  0.99030492    -0.12300
C935        C  0.84968788  0.60303841  0.90576776    -0.10700
C936        C  0.86383594  0.60320760  0.93240247    -0.12300
C937        C  0.86297363  0.40806603  0.90174277    -0.10700
C938        C  0.87557046  0.40725974  0.92926119    -0.12300
C939        C  0.86308331  0.58622481  0.08354219    -0.10700
C940        C  0.87550622  0.58746692  0.05591786    -0.12300
C941        C  0.84980788  0.39221835  0.07917442    -0.10700
C942        C  0.86432563  0.39233163  0.05273128    -0.12300
C943        C  0.97199457  0.61288637  0.99195448    -0.10700
C944        C  0.00215596  0.61226307  0.99326043    -0.12300
C945        C  0.00208553  0.38032648  0.99098127    -0.10700
C946        C  0.97191485  0.38080244  0.99218170    -0.12300
C947        C  0.05172113  0.48059363  0.99051174    -0.10700
C948        C  0.05144291  0.51069849  0.99423686    -0.12300
C949        C  0.12535362  0.38999885  0.90615723    -0.10700
C950        C  0.11098127  0.38970010  0.93266627    -0.12300
C951        C  0.11013752  0.58602973  0.90168454    -0.10700
C952        C  0.09774063  0.58668309  0.92931237    -0.12300
C953        C  0.11039619  0.60129841  0.05279918    -0.10700
C954        C  0.12485679  0.60135609  0.07927468    -0.12300
C955        C  0.09812556  0.40523181  0.05601586    -0.10700
C956        C  0.11064091  0.40656753  0.08359099    -0.12300
C957        C  0.55131341  0.49796705  0.97680624    -0.10700
C958        C  0.55165115  0.49438300  0.00690812    -0.12300
C959        C  0.61155402  0.40575723  0.90331374    -0.10700
C960        C  0.59898714  0.43329491  0.90209507    -0.12300
C961        C  0.62425366  0.40941985  0.09818717    -0.10700
C962        C  0.61015125  0.43609090  0.09803869    -0.12300
C963        C  0.62545381  0.58339967  0.88773242    -0.10700
C964        C  0.61112789  0.55683340  0.88723463    -0.12300
C965        C  0.61174242  0.58742033  0.08171086    -0.10700
C966        C  0.59931662  0.55977510  0.08253847    -0.12300
C967        C  0.50253045  0.49667902  0.10731739    -0.10700
C968        C  0.47236612  0.49796423  0.10726073    -0.12300
C969        C  0.42375371  0.49562034  0.97668009    -0.10700
C970        C  0.42315250  0.49921422  0.00678387    -0.12300
C971        C  0.47284686  0.49588059  0.87520549    -0.10700
C972        C  0.50302864  0.49716419  0.87520570    -0.12300
C973        C  0.34999140  0.41012745  0.88744892    -0.10700
C974        C  0.36446856  0.43660299  0.88686252    -0.12300
C975        C  0.36474031  0.40523033  0.08220350    -0.10700
C976        C  0.37699930  0.43295039  0.08281425    -0.12300
C977        C  0.36415976  0.58757531  0.90310428    -0.10700
C978        C  0.37683563  0.56008398  0.90169590    -0.12300
C979        C  0.36343233  0.55639148  0.09789852    -0.10700
C980        C  0.34898468  0.58288440  0.09800842    -0.12300
C981        C  0.47286475  0.99871599  0.92832229    -0.10700
C982        C  0.50299707  0.99509511  0.92853300    -0.12300
C983        C  0.59395546  0.90997308  0.85618365    -0.10700
C984        C  0.59417267  0.93655694  0.87048011    -0.12300
C985        C  0.39828286  0.90564719  0.86913823    -0.10700
C986        C  0.39736418  0.93332542  0.88146986    -0.12300
C987        C  0.57622939  0.08775329  0.86828135    -0.10700
C988        C  0.57760259  0.06016008  0.88075858    -0.12300
C989        C  0.38198507  0.05692724  0.86927942    -0.10700
C990        C  0.38180689  0.08349534  0.85497183    -0.12300
C991        C  0.60401291  0.99877527  0.00794304    -0.10700
C992        C  0.60401387  0.99771580  0.97777778    -0.12300
C993        C  0.37161918  0.99720950  0.97727006    -0.10700
C994        C  0.37149234  0.99588341  0.00740216    -0.12300
C995        C  0.47269738  0.99521324  0.05557559    -0.10700
C996        C  0.50283159  0.99867760  0.05574719    -0.12300
C997        C  0.38316834  0.90945720  0.12937666    -0.10700
C998        C  0.38302557  0.93601661  0.11510853    -0.12300
C999        C  0.57829917  0.93294830  0.10282580    -0.10700
C1000       C  0.57753910  0.90536674  0.11533195    -0.12300
C1001       C  0.59233178  0.05627719  0.11709573    -0.10700
C1002       C  0.59195916  0.08269032  0.13166645    -0.12300
C1003       C  0.39747442  0.08719122  0.11630241    -0.10700
C1004       C  0.39682109  0.05969202  0.10358990    -0.12300
C1005       C  0.48587090  0.98110457  0.42862966    -0.10700
C1006       C  0.48952599  0.01122507  0.42860829    -0.12300
C1007       C  0.40052749  0.89061787  0.35578703    -0.10700
C1008       C  0.42702386  0.89032323  0.37022632    -0.12300
C1009       C  0.39617582  0.08555077  0.37002689    -0.10700
C1010       C  0.42376760  0.08659407  0.38254051    -0.12300
C1011       C  0.57810598  0.90659918  0.36964261    -0.10700
C1012       C  0.55057550  0.90526231  0.38224246    -0.12300
C1013       C  0.57364291  0.10223250  0.35511601    -0.10700
C1014       C  0.54711293  0.10230844  0.36947861    -0.12300
C1015       C  0.98671037  0.98159471  0.60926469    -0.10700
C1016       C  0.98848760  0.01174118  0.60940856    -0.12300
C1017       C  0.98790965  0.98161355  0.37688378    -0.10700
C1018       C  0.98714716  0.01180513  0.37702524    -0.12300
C1019       C  0.98841927  0.93304131  0.47790673    -0.10700
C1020       C  0.98492122  0.93293014  0.50802879    -0.12300
C1021       C  0.90008682  0.85894798  0.59832085    -0.10700
C1022       C  0.92649477  0.87356296  0.59842708    -0.12300
C1023       C  0.89541710  0.87347805  0.40345871    -0.10700
C1024       C  0.92301533  0.88597565  0.40259239    -0.12300
C1025       C  0.07772179  0.87299651  0.58264041    -0.10700
C1026       C  0.05008683  0.88544124  0.58359077    -0.12300
C1027       C  0.07318720  0.85875004  0.38797970    -0.10700
C1028       C  0.04658125  0.87302925  0.38783020    -0.12300
C1029       C  0.10282055  0.51229213  0.49111583    -0.10700
C1030       C  0.10233740  0.48215269  0.49262684    -0.12300
C1031       C  0.97215519  0.56063038  0.49391548    -0.10700
C1032       C  0.00226276  0.56118042  0.49024848    -0.12300
C1033       C  0.87072716  0.51114035  0.49301168    -0.10700
C1034       C  0.87018514  0.48097937  0.49171401    -0.12300
C1035       C  0.89730127  0.61972405  0.40176585    -0.10700
C1036       C  0.89632957  0.60719190  0.42932805    -0.12300
C1037       C  0.09292506  0.62102562  0.43261616    -0.10700
C1038       C  0.09280525  0.63533449  0.40610396    -0.12300
C1039       C  0.88167729  0.61914570  0.55290302    -0.10700
C1040       C  0.88191082  0.63356224  0.57940227    -0.12300
C1041       C  0.07791758  0.60794498  0.55585840    -0.10700
C1042       C  0.07699588  0.62033343  0.58347675    -0.12300
C1043       C  0.48724454  0.11249772  0.50833003    -0.10700
C1044       C  0.48844800  0.11222882  0.47817441    -0.12300
C1045       C  0.48889602  0.98171043  0.55696999    -0.10700
C1046       C  0.48543606  0.01183324  0.55696876    -0.12300
C1047       C  0.48766836  0.88056117  0.50871683    -0.10700
C1048       C  0.48639443  0.88048444  0.47856599    -0.12300
C1049       C  0.42392931  0.90620143  0.60480352    -0.10700
C1050       C  0.39636216  0.90684038  0.61735278    -0.12300
C1051       C  0.40048611  0.10205073  0.63033313    -0.10700
C1052       C  0.42710644  0.10231633  0.61614373    -0.12300
C1053       C  0.57412604  0.89198609  0.63085425    -0.10700
C1054       C  0.54753982  0.89175628  0.61659683    -0.12300
C1055       C  0.57824892  0.08661053  0.61738802    -0.10700
C1056       C  0.55069117  0.08726432  0.60480941    -0.12300
loop_ 
_geom_bond_atom_site_label_1 
_geom_bond_atom_site_label_2 
_geom_bond_distance 
_geom_bond_site_symmetry_2 
_ccdc_geom_bond_type 
O1            C4   1.271       .  A
O1           Cd6   2.592       .  S
C2           O11   1.260       .  A
C2            O7   1.271       .  A
C2          C402   1.485       .  S
O3            C9   1.260       .  A
O3           Cd6   2.498       .  S
C4           O12   1.263       .  A
C4           C22   1.498   1_545  S
C5           O10   1.265       .  A
C5            O8   1.263       .  A
C5         C1055   1.422       .  S
Cd6          O13   2.540       .  S
Cd6          O12   2.502       .  S
Cd6          O11   2.500       .  S
Cd6           O7   2.541       .  S
Cd6          O10   2.442       .  S
Cd6           O8   2.414       .  S
C9           O13   1.270       .  A
C9          C791   1.484       .  S
O14          C17   1.265       .  A
O14         Cd19   2.413       .  S
C15          O24   1.269       .  A
C15          O20   1.259       .  A
C15         C195   1.469       .  S
O16          C22   1.270       .  A
O16         Cd19   2.581       .  S
C17          O25   1.264       .  A
C17        C1053   1.414       .  S
C18          O23   1.272       .  A
C18          O21   1.257       .  A
C18         C428   1.471       .  S
Cd19         O26   2.504       .  S
Cd19         O25   2.408       .  S
Cd19         O24   2.502       .  S
Cd19         O20   2.463       .  S
Cd19         O23   2.515       .  S
Cd19         O21   2.460       .  S
C22          O26   1.266       .  A
O27          C30   1.259       .  A
O27         Cd32   2.465       .  S
C28          O37   1.264       .  A
C28          O33   1.265       .  A
C28        C1051   1.414       .  S
O29          C35   1.272       .  A
O29         Cd32   2.512       .  S
C30          O38   1.269       .  A
C30         C777   1.469       .  S
C31          O36   1.270       .  A
C31          O34   1.266       .  A
C31          C43   1.498   1_545  S
Cd32         O39   2.464       .  S
Cd32         O38   2.501       .  S
Cd32         O37   2.408       .  S
Cd32         O33   2.412       .  S
Cd32         O36   2.579       .  S
Cd32         O34   2.508       .  S
C35          O39   1.257       .  A
C35         C389   1.472       .  S
O40          C43   1.271       .  A
O40         Cd45   2.591       .  S
C41          O50   1.260       .  A
C41          O46   1.271       .  A
C41         C408   1.486       .  S
O42          C48   1.260       .  A
O42         Cd45   2.497       .  S
C43          O51   1.263       .  A
C44          O49   1.265       .  A
C44          O47   1.263       .  A
C44        C1050   1.421       .  S
Cd45         O52   2.536       .  S
Cd45         O51   2.503       .  S
Cd45         O50   2.499       .  S
Cd45         O46   2.544       .  S
Cd45         O49   2.440       .  S
Cd45         O47   2.413       .  S
C48          O52   1.269       .  A
C48         C174   1.483       .  S
C53          C54   1.526       .  S
C53          C59   1.529       .  S
C53          C57   1.529       .  S
C53        C1054   1.444       .  S
C54          H61   1.086       .  S
C54          C55   1.360       .  D
C55          C56   1.535       .  S
C55        C1047   1.422       .  S
C56          C60   1.532       .  S
C56          C58   1.531       .  S
C56          H62   1.112       .  S
C57          H63   1.087       .  S
C57          C58   1.355       .  D
C58        C1045   1.430       .  S
C59          H64   1.086       .  S
C59          C60   1.363       .  D
C60        C1049   1.429       .  S
C65          C66   1.526       .  S
C65          C71   1.528       .  S
C65          C69   1.529       .  S
C65        C1052   1.444       .  S
C66          H73   1.087       .  S
C66          C67   1.360       .  D
C67          C68   1.535       .  S
C67        C1043   1.422       .  S
C68          C72   1.532       .  S
C68          C70   1.531       .  S
C68          H74   1.112       .  S
C69          H75   1.087       .  S
C69          C70   1.355       .  D
C70        C1046   1.431       .  S
C71          H76   1.086       .  S
C71          C72   1.363       .  D
C72        C1056   1.429       .  S
O77          C80   1.270       .  A
O77         Cd82   2.586       .  S
C78          O87   1.260       .  A
C78          O83   1.271       .  A
C78         C167   1.486       .  S
O79          C85   1.260       .  A
O79         Cd82   2.500       .  S
C80          O88   1.263       .  A
C80          C94   1.496   1_455  S
C81          O86   1.265       .  A
C81          O84   1.263       .  A
C81        C1042   1.422       .  S
Cd82         O89   2.535       .  S
Cd82         O88   2.501       .  S
Cd82         O87   2.497       .  S
Cd82         O83   2.546       .  S
Cd82         O86   2.443       .  S
Cd82         O84   2.414       .  S
C85          O89   1.269       .  A
C85         C639   1.484       .  S
O90          C93   1.259       .  A
O90         Cd95   2.460       .  S
C91         O100   1.264       .  A
C91          O96   1.265       .  A
C91        C1040   1.415       .  S
O92          C98   1.272       .  A
O92         Cd95   2.511       .  S
C93         O101   1.269       .  A
C93         C725   1.468       .  S
C94          O99   1.270       .  A
C94          O97   1.265       .  A
Cd95        O102   2.461       .  S
Cd95        O101   2.497       .  S
Cd95        O100   2.411       .  S
Cd95         O96   2.413       .  S
Cd95         O99   2.577       .  S
Cd95         O97   2.504       .  S
C98         O102   1.257       .  A
C98         C200   1.471       .  S
O103        C106   1.259       .  A
O103       Cd108   2.463       .  S
C104        O113   1.264       .  A
C104        O109   1.265       .  A
C104       C1038   1.412       .  S
O105        C111   1.272       .  A
O105       Cd108   2.513       .  S
C106        O114   1.269       .  A
C106        C625   1.468       .  S
C107        O112   1.270       .  A
C107        O110   1.266       .  A
C107        C124   1.497   1_455  S
Cd108       O115   2.464       .  S
Cd108       O114   2.499       .  S
Cd108       O113   2.405       .  S
Cd108       O109   2.409       .  S
Cd108       O112   2.577       .  S
Cd108       O110   2.504       .  S
C111        O115   1.257       .  A
C111        C157   1.473       .  S
O116        C119   1.260       .  A
O116       Cd121   2.501       .  S
C117        O126   1.264       .  A
C117        O122   1.265       .  A
C117       C1035   1.423       .  S
O118        C124   1.270       .  A
O118       Cd121   2.592       .  S
C119        O127   1.269       .  A
C119        C706   1.485       .  S
C120        O125   1.271       .  A
C120        O123   1.260       .  A
C120        C182   1.487       .  S
Cd121       O128   2.504       .  S
Cd121       O127   2.540       .  S
Cd121       O126   2.414       .  S
Cd121       O122   2.444       .  S
Cd121       O125   2.547       .  S
Cd121       O123   2.501       .  S
C124        O128   1.263       .  A
C129        C130   1.526       .  S
C129        C135   1.529       .  S
C129        C133   1.529       .  S
C129       C1039   1.445       .  S
C130        H137   1.087       .  S
C130        C131   1.360       .  D
C131        C132   1.536       .  S
C131       C1033   1.422       .  S
C132        C136   1.532       .  S
C132        C134   1.532       .  S
C132        H138   1.112       .  S
C133        H139   1.086       .  S
C133        C134   1.356       .  D
C134       C1031   1.431       .  S
C135        H140   1.086       .  S
C135        C136   1.364       .  D
C136       C1036   1.430       .  S
C141        C142   1.530       .  S
C141        C147   1.526       .  S
C141        C145   1.528       .  S
C141       C1037   1.442       .  S
C142        H149   1.087       .  S
C142        C143   1.356       .  D
C143        C144   1.531       .  S
C143       C1032   1.431       .  S
C144        C148   1.535       .  S
C144        C146   1.532       .  S
C144        H150   1.112       .  S
C145        H151   1.086       .  S
C145        C146   1.363       .  D
C146       C1041   1.429       .  S
C147        H152   1.086       .  S
C147        C148   1.359       .  D
C148       C1029   1.421       .  S
O153        C156   1.265       .  A
O153       Cd158   2.418       .  S
C154        O163   1.269       .  A
C154        O159   1.260       .  A
C154        C271   1.468       .  S
O155        C161   1.270       .  A
O155       Cd158   2.580       .  S
C156        O164   1.264       .  A
C156       C1027   1.416       .  S
C157        O162   1.272       .  A
C157        O160   1.258       .  A
Cd158       O165   2.504       .  S
Cd158       O164   2.413       .  S
Cd158       O163   2.497       .  S
Cd158       O159   2.465       .  S
Cd158       O162   2.510       .  S
Cd158       O160   2.465       .  S
C161        O165   1.265       .  A
C161        C169   1.497       .  S
O166        C169   1.270       .  A
O166       Cd171   2.592       .  S
C167        O176   1.260       .  A
C167        O172   1.271       .  A
O168        C174   1.260       .  A
O168       Cd171   2.498       .  S
C169        O177   1.263       .  A
C170        O175   1.265       .  A
C170        O173   1.264       .  A
C170       C1025   1.423       .  S
Cd171       O178   2.536       .  S
Cd171       O177   2.502       .  S
Cd171       O176   2.502       .  S
Cd171       O172   2.542       .  S
Cd171       O175   2.446       .  S
Cd171       O173   2.418       .  S
C174        O178   1.269       .  A
O179        C182   1.271       .  A
O179       Cd184   2.544       .  S
C180        O189   1.263       .  A
C180        O185   1.270       .  A
C180        C196   1.496       .  S
O181        C187   1.265       .  A
O181       Cd184   2.444       .  S
C182        O190   1.260       .  A
C183        O188   1.260       .  A
C183        O186   1.269       .  A
C183        C246   1.483       .  S
Cd184       O191   2.412       .  S
Cd184       O190   2.501       .  S
Cd184       O189   2.501       .  S
Cd184       O185   2.589       .  S
Cd184       O188   2.495       .  S
Cd184       O186   2.539       .  S
C187        O191   1.263       .  A
C187       C1023   1.422       .  S
O192        C195   1.259       .  A
O192       Cd197   2.461       .  S
C193        O202   1.264       .  A
C193        O198   1.265       .  A
C193       C1021   1.414       .  S
O194        C200   1.272       .  A
O194       Cd197   2.510       .  S
C195        O203   1.269       .  A
C196        O201   1.270       .  A
C196        O199   1.265       .  A
Cd197       O204   2.461       .  S
Cd197       O203   2.499       .  S
Cd197       O202   2.413       .  S
Cd197       O198   2.410       .  S
Cd197       O201   2.578       .  S
Cd197       O199   2.502       .  S
C200        O204   1.257       .  A
C205        C206   1.526       .  S
C205        C211   1.529   1_455  S
C205        C209   1.530       .  S
C205       C1028   1.445       .  S
C206        H213   1.087       .  S
C206        C207   1.360   1_455  D
C207        C208   1.536       .  S
C207       C1017   1.423       .  S
C208        C212   1.532       .  S
C208        C210   1.532       .  S
C208        H214   1.112       .  S
C209        H215   1.087       .  S
C209        C210   1.356   1_455  D
C210       C1019   1.432       .  S
C211        H216   1.086       .  S
C211        C212   1.364       .  D
C212       C1024   1.429       .  S
C217        C218   1.527       .  S
C217        C223   1.529       .  S
C217        C221   1.530       .  S
C217       C1022   1.445       .  S
C218        H225   1.086       .  S
C218        C219   1.360       .  D
C219        C220   1.535   1_655  S
C219       C1015   1.423       .  S
C220        C224   1.532       .  S
C220        C222   1.532   1_455  S
C220        H226   1.112       .  S
C221        H227   1.086       .  S
C221        C222   1.356       .  D
C222       C1020   1.432       .  S
C223        H228   1.086       .  S
C223        C224   1.363   1_655  D
C224       C1026   1.430       .  S
O229        C232   1.259       .  A
O229       Cd234   2.462       .  S
C230        O239   1.264       .  A
C230        O235   1.265       .  A
C230       C1013   1.414       .  S
O231        C237   1.272       .  A
O231       Cd234   2.508       .  S
C232        O240   1.269       .  A
C232        C803   1.468       .  S
C233        O238   1.270       .  A
C233        O236   1.266       .  A
C233        C243   1.496   1_545  S
Cd234       O241   2.461       .  S
Cd234       O240   2.496       .  S
Cd234       O239   2.410       .  S
Cd234       O235   2.412       .  S
Cd234       O238   2.573       .  S
Cd234       O236   2.502       .  S
C237        O241   1.257       .  A
C237        C326   1.472       .  S
O242        C245   1.271       .  A
O242       Cd247   2.547       .  S
C243        O252   1.263       .  A
C243        O248   1.270       .  A
O244        C250   1.265       .  A
O244       Cd247   2.442       .  S
C245        O253   1.260       .  A
C245        C334   1.487       .  S
C246        O251   1.260       .  A
C246        O249   1.269       .  A
Cd247       O254   2.415       .  S
Cd247       O253   2.497       .  S
Cd247       O252   2.501       .  S
Cd247       O248   2.589       .  S
Cd247       O251   2.499       .  S
Cd247       O249   2.534       .  S
C250        O254   1.264       .  A
C250       C1011   1.422       .  S
O255        C258   1.260       .  A
O255       Cd260   2.499       .  S
C256        O265   1.263       .  A
C256        O261   1.265       .  A
C256       C1009   1.423       .  S
O257        C263   1.270       .  A
O257       Cd260   2.588       .  S
C258        O266   1.269       .  A
C258        C769   1.484       .  S
C259        O264   1.271       .  A
C259        O262   1.260       .  A
C259        C306   1.487       .  S
Cd260       O267   2.499       .  S
Cd260       O266   2.537       .  S
Cd260       O265   2.416       .  S
Cd260       O261   2.445       .  S
Cd260       O264   2.544       .  S
Cd260       O262   2.498       .  S
C263        O267   1.263       .  A
C263        C272   1.496   1_545  S
O268        C271   1.259       .  A
O268       Cd273   2.462       .  S
C269        O278   1.264       .  A
C269        O274   1.265       .  A
C269       C1007   1.415       .  S
O270        C276   1.272       .  A
O270       Cd273   2.511       .  S
C271        O279   1.269       .  A
C272        O277   1.270       .  A
C272        O275   1.265       .  A
Cd273       O280   2.461       .  S
Cd273       O279   2.499       .  S
Cd273       O278   2.412       .  S
Cd273       O274   2.415       .  S
Cd273       O277   2.574       .  S
Cd273       O275   2.501       .  S
C276        O280   1.257       .  A
C276        C348   1.472       .  S
C281        C282   1.526       .  S
C281        C287   1.529       .  S
C281        C285   1.530       .  S
C281       C1008   1.444       .  S
C282        H289   1.086       .  S
C282        C283   1.360       .  D
C283        C284   1.536       .  S
C283       C1048   1.422       .  S
C284        C288   1.532       .  S
C284        C286   1.531       .  S
C284        H290   1.112       .  S
C285        H291   1.087       .  S
C285        C286   1.356       .  D
C286       C1005   1.432       .  S
C287        H292   1.086       .  S
C287        C288   1.364       .  D
C288       C1012   1.429       .  S
C293        C294   1.526       .  S
C293        C299   1.529       .  S
C293        C297   1.530       .  S
C293       C1014   1.444       .  S
C294        H301   1.086       .  S
C294        C295   1.360       .  D
C295        C296   1.536       .  S
C295       C1044   1.423       .  S
C296        C300   1.533       .  S
C296        C298   1.532       .  S
C296        H302   1.112       .  S
C297        H303   1.087       .  S
C297        C298   1.356       .  D
C298       C1006   1.432       .  S
C299        H304   1.086       .  S
C299        C300   1.363       .  D
C300       C1010   1.430       .  S
O305        C308   1.270       .  A
O305       Cd310   2.590       .  S
C306        O315   1.260       .  A
C306        O311   1.271       .  A
O307        C313   1.260       .  A
O307       Cd310   2.499       .  S
C308        O316   1.263       .  A
C308        C322   1.497       .  S
C309        O314   1.265       .  A
C309        O312   1.263       .  A
C309       C1003   1.422       .  S
Cd310       O317   2.537       .  S
Cd310       O316   2.504       .  S
Cd310       O315   2.504       .  S
Cd310       O311   2.543       .  S
Cd310       O314   2.444       .  S
Cd310       O312   2.416       .  S
C313        O317   1.269       .  A
C313        C487   1.484       .  S
O318        C321   1.259       .  A
O318       Cd323   2.466       .  S
C319        O328   1.264       .  A
C319        O324   1.265       .  A
C319       C1002   1.414       .  S
O320        C326   1.272       .  A
O320       Cd323   2.514       .  S
C321        O329   1.269       .  A
C321        C562   1.470       .  S
C322        O327   1.270       .  A
C322        O325   1.265       .  A
Cd323       O330   2.462       .  S
Cd323       O329   2.500       .  S
Cd323       O328   2.412       .  S
Cd323       O324   2.410       .  S
Cd323       O327   2.579       .  S
Cd323       O325   2.503       .  S
C326        O330   1.257       .  A
O331        C334   1.271       .  A
O331       Cd336   2.543       .  S
C332        O341   1.263       .  A
C332        O337   1.270       .  A
C332        C352   1.498       .  S
O333        C339   1.265       .  A
O333       Cd336   2.443       .  S
C334        O342   1.260       .  A
C335        O340   1.260       .  A
C335        O338   1.269       .  A
C335        C534   1.484       .  S
Cd336       O343   2.413       .  S
Cd336       O342   2.506       .  S
Cd336       O341   2.504       .  S
Cd336       O337   2.592       .  S
Cd336       O340   2.498       .  S
Cd336       O338   2.539       .  S
C339        O343   1.263       .  A
C339       C1000   1.422       .  S
O344        C347   1.265       .  A
O344       Cd349   2.412       .  S
C345        O354   1.269       .  A
C345        O350   1.259       .  A
C345        C460   1.469       .  S
O346        C352   1.270       .  A
O346       Cd349   2.580       .  S
C347        O355   1.264       .  A
C347        C997   1.413       .  S
C348        O353   1.272       .  A
C348        O351   1.257       .  A
Cd349       O356   2.504       .  S
Cd349       O355   2.405       .  S
Cd349       O354   2.501       .  S
Cd349       O350   2.466       .  S
Cd349       O353   2.513       .  S
Cd349       O351   2.466       .  S
C352        O356   1.265       .  A
C357        C358   1.526       .  S
C357        C363   1.529       .  S
C357        C361   1.529       .  S
C357        C998   1.443       .  S
C358        H365   1.087       .  S
C358        C359   1.359       .  D
C359        C360   1.535   1_565  S
C359        C994   1.421       .  S
C360        C364   1.532       .  S
C360        C362   1.532   1_545  S
C360        H366   1.112       .  S
C361        H367   1.087       .  S
C361        C362   1.355       .  D
C362        C995   1.431       .  S
C363        H368   1.086   1_565  S
C363        C364   1.363   1_565  D
C364       C1004   1.429       .  S
C369        C370   1.527       .  S
C369        C375   1.528   1_545  S
C369        C373   1.529       .  S
C369       C1001   1.444       .  S
C370        H377   1.086       .  S
C370        C371   1.360       .  D
C371        C372   1.535   1_545  S
C371        C991   1.423   1_545  S
C372        C376   1.533       .  S
C372        C374   1.531   1_565  S
C372        H378   1.112       .  S
C373        H379   1.087       .  S
C373        C374   1.355       .  D
C374        C996   1.431   1_545  S
C375        H380   1.086       .  S
C375        C376   1.363       .  D
C376        C999   1.429       .  S
O381        C384   1.259       .  A
O381       Cd386   2.460       .  S
C382        O391   1.264       .  A
C382        O387   1.265       .  A
C382        C990   1.415       .  S
O383        C389   1.272       .  A
O383       Cd386   2.511       .  S
C384        O392   1.269       .  A
C384        C499   1.468       .  S
C385        O390   1.270       .  A
C385        O388   1.265       .  A
C385        C398   1.495       .  S
Cd386       O393   2.461       .  S
Cd386       O392   2.500       .  S
Cd386       O391   2.411       .  S
Cd386       O387   2.417       .  S
Cd386       O390   2.579       .  S
Cd386       O388   2.496       .  S
C389        O393   1.257       .  A
O394        C397   1.265       .  A
O394       Cd399   2.446       .  S
C395        O404   1.269       .  A
C395        O400   1.260       .  A
C395        C576   1.484       .  S
O396        C402   1.271       .  A
O396       Cd399   2.540       .  S
C397        O405   1.263       .  A
C397        C987   1.423       .  S
C398        O403   1.270       .  A
C398        O401   1.263       .  A
Cd399       O406   2.492       .  S
Cd399       O405   2.415       .  S
Cd399       O404   2.539       .  S
Cd399       O400   2.498       .  S
Cd399       O403   2.589       .  S
Cd399       O401   2.494       .  S
C402        O406   1.260       .  A
O407        C410   1.271       .  A
O407       Cd412   2.592       .  S
C408        O417   1.260       .  A
C408        O413   1.271       .  A
O409        C415   1.260       .  A
O409       Cd412   2.499       .  S
C410        O418   1.263       .  A
C410        C424   1.496       .  S
C411        O416   1.265       .  A
C411        O414   1.263       .  A
C411        C985   1.423       .  S
Cd412       O419   2.537       .  S
Cd412       O418   2.495       .  S
Cd412       O417   2.495       .  S
Cd412       O413   2.540       .  S
Cd412       O416   2.446       .  S
Cd412       O414   2.414       .  S
C415        O419   1.269       .  A
C415        C471   1.484       .  S
O420        C423   1.259       .  A
O420       Cd425   2.461       .  S
C421        O430   1.264       .  A
C421        O426   1.265       .  A
C421        C983   1.415       .  S
O422        C428   1.272       .  A
O422       Cd425   2.506       .  S
C423        O431   1.269       .  A
C423        C547   1.468       .  S
C424        O429   1.269       .  A
C424        O427   1.265       .  A
Cd425       O432   2.464       .  S
Cd425       O431   2.500       .  S
Cd425       O430   2.412       .  S
Cd425       O426   2.416       .  S
Cd425       O429   2.580       .  S
Cd425       O427   2.500       .  S
C428        O432   1.257       .  A
C433        C434   1.526       .  S
C433        C439   1.530   1_545  S
C433        C437   1.530       .  S
C433        C989   1.445       .  S
C434        H441   1.086       .  S
C434        C435   1.359   1_545  D
C435        C436   1.535       .  S
C435        C993   1.421       .  S
C436        C440   1.532       .  S
C436        C438   1.531   1_565  S
C436        H442   1.112       .  S
C437        H443   1.087       .  S
C437        C438   1.356       .  D
C438        C981   1.432   1_545  S
C439        H444   1.086       .  S
C439        C440   1.364       .  D
C440        C986   1.430       .  S
C445        C446   1.526       .  S
C445        C451   1.530       .  S
C445        C449   1.530       .  S
C445        C984   1.445       .  S
C446        H453   1.086       .  S
C446        C447   1.360       .  D
C447        C448   1.536   1_565  S
C447        C992   1.423       .  S
C448        C452   1.532       .  S
C448        C450   1.531   1_545  S
C448        H454   1.112       .  S
C449        H455   1.087       .  S
C449        C450   1.356       .  D
C450        C982   1.432       .  S
C451        H456   1.086   1_565  S
C451        C452   1.364   1_565  D
C452        C988   1.430       .  S
O457        C460   1.259       .  A
O457       Cd462   2.462       .  S
C458        O467   1.264       .  A
C458        O463   1.265       .  A
C458        C980   1.415       .  S
O459        C465   1.272       .  A
O459       Cd462   2.513       .  S
C460        O468   1.269       .  A
C461        O466   1.270       .  A
C461        O464   1.265       .  A
C461        C474   1.497   1_554  S
Cd462       O469   2.460       .  S
Cd462       O468   2.500       .  S
Cd462       O467   2.412       .  S
Cd462       O463   2.413       .  S
Cd462       O466   2.576       .  S
Cd462       O464   2.504       .  S
C465        O469   1.257       .  A
C465        C630   1.472       .  S
O470        C473   1.265       .  A
O470       Cd475   2.444       .  S
C471        O480   1.269       .  A
C471        O476   1.260       .  A
O472        C478   1.271       .  A
O472       Cd475   2.544       .  S
C473        O481   1.263       .  A
C473        C977   1.422       .  S
C474        O479   1.270       .  A
C474        O477   1.263       .  A
Cd475       O482   2.500       .  S
Cd475       O481   2.416       .  S
Cd475       O480   2.538       .  S
Cd475       O476   2.498       .  S
Cd475       O479   2.587       .  S
Cd475       O477   2.503       .  S
C478        O482   1.260       .  A
C478        C638   1.487       .  S
O483        C486   1.271       .  A
O483       Cd488   2.546       .  S
C484        O493   1.263       .  A
C484        O489   1.270       .  A
C484        C500   1.497   1_554  S
O485        C491   1.265       .  A
O485       Cd488   2.447       .  S
C486        O494   1.260       .  A
C486        C612   1.487       .  S
C487        O492   1.260       .  A
C487        O490   1.269       .  A
Cd488       O495   2.413       .  S
Cd488       O494   2.501       .  S
Cd488       O493   2.500       .  S
Cd488       O489   2.589       .  S
Cd488       O492   2.500       .  S
Cd488       O490   2.537       .  S
C491        O495   1.263       .  A
C491        C975   1.423       .  S
O496        C499   1.259       .  A
O496       Cd501   2.463       .  S
C497        O506   1.264       .  A
C497        O502   1.265       .  A
C497        C973   1.415       .  S
O498        C504   1.272       .  A
O498       Cd501   2.508       .  S
C499        O507   1.269       .  A
C500        O505   1.270       .  A
C500        O503   1.266       .  A
Cd501       O508   2.464       .  S
Cd501       O507   2.498       .  S
Cd501       O506   2.412       .  S
Cd501       O502   2.412       .  S
Cd501       O505   2.577       .  S
Cd501       O503   2.504       .  S
C504        O508   1.257       .  A
C504        C656   1.472       .  S
C509        C510   1.526       .  S
C509        C515   1.529       .  S
C509        C513   1.529       .  S
C509        C974   1.445       .  S
C510        H517   1.086       .  S
C510        C511   1.360       .  D
C511        C512   1.536       .  S
C511        C971   1.423       .  S
C512        C516   1.532       .  S
C512        C514   1.532       .  S
C512        H518   1.112       .  S
C513        H519   1.087       .  S
C513        C514   1.355       .  D
C514        C969   1.431       .  S
C515        H520   1.086       .  S
C515        C516   1.363       .  D
C516        C978   1.429       .  S
C521        C522   1.526       .  S
C521        C527   1.529       .  S
C521        C525   1.530       .  S
C521        C979   1.445       .  S
C522        H529   1.086       .  S
C522        C523   1.360       .  D
C523        C524   1.535       .  S
C523        C968   1.422       .  S
C524        C528   1.532       .  S
C524        C526   1.531       .  S
C524        H530   1.112       .  S
C525        H531   1.087       .  S
C525        C526   1.356       .  D
C526        C970   1.432       .  S
C527        H532   1.086       .  S
C527        C528   1.364       .  D
C528        C976   1.430       .  S
O533        C536   1.265       .  A
O533       Cd538   2.445       .  S
C534        O543   1.269       .  A
C534        O539   1.260       .  A
O535        C541   1.271       .  A
O535       Cd538   2.547       .  S
C536        O544   1.263       .  A
C536        C965   1.423       .  S
C537        O542   1.270       .  A
C537        O540   1.263       .  A
C537        C554   1.496   1_554  S
Cd538       O545   2.497       .  S
Cd538       O544   2.415       .  S
Cd538       O543   2.537       .  S
Cd538       O539   2.499       .  S
Cd538       O542   2.590       .  S
Cd538       O540   2.497       .  S
C541        O545   1.260       .  A
C541        C699   1.486       .  S
O546        C549   1.265       .  A
O546       Cd551   2.414       .  S
C547        O556   1.269       .  A
C547        O552   1.259       .  A
O548        C554   1.270       .  A
O548       Cd551   2.577       .  S
C549        O557   1.264       .  A
C549        C963   1.415       .  S
C550        O555   1.272       .  A
C550        O553   1.257       .  A
C550        C728   1.471       .  S
Cd551       O558   2.499       .  S
Cd551       O557   2.413       .  S
Cd551       O556   2.499       .  S
Cd551       O552   2.463       .  S
Cd551       O555   2.510       .  S
Cd551       O553   2.461       .  S
C554        O558   1.265       .  A
O559        C562   1.259       .  A
O559       Cd564   2.463       .  S
C560        O569   1.263       .  A
C560        O565   1.265       .  A
C560        C961   1.414       .  S
O561        C567   1.272       .  A
O561       Cd564   2.512       .  S
C562        O570   1.269       .  A
C563        O568   1.269       .  A
C563        O566   1.266       .  A
C563        C573   1.497   1_554  S
Cd564       O571   2.460       .  S
Cd564       O570   2.502       .  S
Cd564       O569   2.409       .  S
Cd564       O565   2.416       .  S
Cd564       O568   2.578       .  S
Cd564       O566   2.504       .  S
C567        O571   1.257       .  A
C567        C693   1.471       .  S
O572        C575   1.271       .  A
O572       Cd577   2.544       .  S
C573        O582   1.263       .  A
C573        O578   1.270       .  A
O574        C580   1.265       .  A
O574       Cd577   2.440       .  S
C575        O583   1.260       .  A
C575        C712   1.486       .  S
C576        O581   1.260       .  A
C576        O579   1.269       .  A
Cd577       O584   2.414       .  S
Cd577       O583   2.497       .  S
Cd577       O582   2.500       .  S
Cd577       O578   2.591       .  S
Cd577       O581   2.498       .  S
Cd577       O579   2.536       .  S
C580        O584   1.263       .  A
C580        C959   1.422       .  S
C585        C586   1.527       .  S
C585        C591   1.529       .  S
C585        C589   1.529       .  S
C585        C964   1.445       .  S
C586        H593   1.086       .  S
C586        C587   1.360       .  D
C587        C588   1.536       .  S
C587        C972   1.423       .  S
C588        C592   1.532       .  S
C588        C590   1.531       .  S
C588        H594   1.112       .  S
C589        H595   1.087       .  S
C589        C590   1.355       .  D
C590        C957   1.431       .  S
C591        H596   1.086       .  S
C591        C592   1.363       .  D
C592        C960   1.429       .  S
C597        C598   1.526       .  S
C597        C603   1.529       .  S
C597        C601   1.530       .  S
C597        C962   1.444       .  S
C598        H605   1.086       .  S
C598        C599   1.359       .  D
C599        C600   1.535       .  S
C599        C967   1.422       .  S
C600        C604   1.533       .  S
C600        C602   1.531       .  S
C600        H606   1.112       .  S
C601        H607   1.086       .  S
C601        C602   1.356       .  D
C602        C958   1.431       .  S
C603        H608   1.086       .  S
C603        C604   1.364       .  D
C604        C966   1.430       .  S
O609        C612   1.271       .  A
O609       Cd614   2.545       .  S
C610        O619   1.263       .  A
C610        O615   1.270       .  A
C610        C626   1.496       .  S
O611        C617   1.265       .  A
O611       Cd614   2.446       .  S
C612        O620   1.260       .  A
C613        O618   1.260       .  A
C613        O616   1.269       .  A
C613        C864   1.484       .  S
Cd614       O621   2.418       .  S
Cd614       O620   2.501       .  S
Cd614       O619   2.499       .  S
Cd614       O615   2.589       .  S
Cd614       O618   2.499       .  S
Cd614       O616   2.539       .  S
C617        O621   1.263       .  A
C617        C956   1.424       .  S
O622        C625   1.259       .  A
O622       Cd627   2.462       .  S
C623        O632   1.264       .  A
C623        O628   1.265       .  A
C623        C954   1.415       .  S
O624        C630   1.272       .  A
O624       Cd627   2.508       .  S
C625        O633   1.269       .  A
C626        O631   1.270       .  A
C626        O629   1.265       .  A
Cd627       O634   2.464       .  S
Cd627       O633   2.496       .  S
Cd627       O632   2.413       .  S
Cd627       O628   2.412       .  S
Cd627       O631   2.577       .  S
Cd627       O629   2.501       .  S
C630        O634   1.257       .  A
O635        C638   1.271       .  A
O635       Cd640   2.544       .  S
C636        O645   1.263       .  A
C636        O641   1.270       .  A
C636        C652   1.497       .  S
O637        C643   1.265       .  A
O637       Cd640   2.447       .  S
C638        O646   1.260       .  A
C639        O644   1.260       .  A
C639        O642   1.269       .  A
Cd640       O647   2.412       .  S
Cd640       O646   2.502       .  S
Cd640       O645   2.500       .  S
Cd640       O641   2.590       .  S
Cd640       O644   2.500       .  S
Cd640       O642   2.539       .  S
C643        O647   1.263       .  A
C643        C951   1.422       .  S
O648        C651   1.259       .  A
O648       Cd653   2.463       .  S
C649        O658   1.264       .  A
C649        O654   1.265       .  A
C649        C949   1.414       .  S
O650        C656   1.272       .  A
O650       Cd653   2.515       .  S
C651        O659   1.269       .  A
C651        C838   1.469       .  S
C652        O657   1.270       .  A
C652        O655   1.265       .  A
Cd653       O660   2.461       .  S
Cd653       O659   2.502       .  S
Cd653       O658   2.408       .  S
Cd653       O654   2.413       .  S
Cd653       O657   2.579       .  S
Cd653       O655   2.502       .  S
C656        O660   1.257       .  A
C661        C662   1.526       .  S
C661        C667   1.529       .  S
C661        C665   1.530       .  S
C661        C950   1.444       .  S
C662        H669   1.086       .  S
C662        C663   1.360       .  D
C663        C664   1.536   1_556  S
C663        C945   1.422       .  S
C664        C668   1.533       .  S
C664        C666   1.531   1_554  S
C664        H670   1.112       .  S
C665        H671   1.087       .  S
C665        C666   1.356       .  D
C666        C947   1.431       .  S
C667        H672   1.086       .  S
C667        C668   1.364   1_556  D
C668        C955   1.431       .  S
C673        C674   1.526       .  S
C673        C679   1.529   1_554  S
C673        C677   1.530       .  S
C673        C953   1.445       .  S
C674        H681   1.086       .  S
C674        C675   1.360   1_554  D
C675        C676   1.535       .  S
C675        C944   1.422       .  S
C676        C680   1.532       .  S
C676        C678   1.532       .  S
C676        H682   1.112       .  S
C677        H683   1.087       .  S
C677        C678   1.356   1_554  D
C678        C948   1.431       .  S
C679        H684   1.086       .  S
C679        C680   1.364       .  D
C680        C952   1.429       .  S
O685        C688   1.259       .  A
O685       Cd690   2.462       .  S
C686        O695   1.264       .  A
C686        O691   1.265       .  A
C686        C941   1.414       .  S
O687        C693   1.272       .  A
O687       Cd690   2.507       .  S
C688        O696   1.269       .  A
C688        C877   1.469       .  S
C689        O694   1.270       .  A
C689        O692   1.265       .  A
C689        C701   1.496       .  S
Cd690       O697   2.464       .  S
Cd690       O696   2.497       .  S
Cd690       O695   2.413       .  S
Cd690       O691   2.413       .  S
Cd690       O694   2.579       .  S
Cd690       O692   2.498       .  S
C693        O697   1.257       .  A
O698        C701   1.270       .  A
O698       Cd703   2.592       .  S
C699        O708   1.260       .  A
C699        O704   1.271       .  A
O700        C706   1.260       .  A
O700       Cd703   2.499       .  S
C701        O709   1.263       .  A
C702        O707   1.265       .  A
C702        O705   1.263       .  A
C702        C939   1.424       .  S
Cd703       O710   2.541       .  S
Cd703       O709   2.499       .  S
Cd703       O708   2.499       .  S
Cd703       O704   2.543       .  S
Cd703       O707   2.447       .  S
Cd703       O705   2.417       .  S
C706        O710   1.269       .  A
O711        C714   1.270       .  A
O711       Cd716   2.589       .  S
C712        O721   1.260       .  A
C712        O717   1.271       .  A
O713        C719   1.260       .  A
O713       Cd716   2.497       .  S
C714        O722   1.263       .  A
C714        C732   1.496       .  S
C715        O720   1.265       .  A
C715        O718   1.263       .  A
C715        C937   1.421       .  S
Cd716       O723   2.535       .  S
Cd716       O722   2.499       .  S
Cd716       O721   2.498       .  S
Cd716       O717   2.541       .  S
Cd716       O720   2.439       .  S
Cd716       O718   2.413       .  S
C719        O723   1.270       .  A
C719        C854   1.483       .  S
O724        C727   1.265       .  A
O724       Cd729   2.415       .  S
C725        O734   1.269       .  A
C725        O730   1.259       .  A
O726        C732   1.269       .  A
O726       Cd729   2.577       .  S
C727        O735   1.264       .  A
C727        C935   1.414       .  S
C728        O733   1.272       .  A
C728        O731   1.257       .  A
Cd729       O736   2.502       .  S
Cd729       O735   2.408       .  S
Cd729       O734   2.500       .  S
Cd729       O730   2.461       .  S
Cd729       O733   2.510       .  S
Cd729       O731   2.462       .  S
C732        O736   1.265       .  A
C737        C738   1.526       .  S
C737        C743   1.529   1_554  S
C737        C741   1.529       .  S
C737        C942   1.445       .  S
C738        H745   1.087       .  S
C738        C739   1.360   1_554  D
C739        C740   1.535       .  S
C739        C946   1.422       .  S
C740        C744   1.532       .  S
C740        C742   1.531       .  S
C740        H746   1.112       .  S
C741        H747   1.086       .  S
C741        C742   1.356   1_554  D
C742        C933   1.431       .  S
C743        H748   1.086       .  S
C743        C744   1.363       .  D
C744        C938   1.428       .  S
C749        C750   1.526       .  S
C749        C755   1.529       .  S
C749        C753   1.530       .  S
C749        C936   1.444       .  S
C750        H757   1.086       .  S
C750        C751   1.360       .  D
C751        C752   1.535   1_556  S
C751        C943   1.422       .  S
C752        C756   1.533       .  S
C752        C754   1.531   1_554  S
C752        H758   1.112       .  S
C753        H759   1.086       .  S
C753        C754   1.356       .  D
C754        C934   1.431       .  S
C755        H760   1.086       .  S
C755        C756   1.364   1_556  D
C756        C940   1.431       .  S
O761        C764   1.270       .  A
O761       Cd766   2.588       .  S
C762        O771   1.260       .  A
C762        O767   1.272       .  A
C762        C871   1.486       .  S
O763        C769   1.260       .  A
O763       Cd766   2.497       .  S
C764        O772   1.263       .  A
C764        C778   1.496       .  S
C765        O770   1.265       .  A
C765        O768   1.263       .  A
C765        C931   1.422       .  S
Cd766       O773   2.538       .  S
Cd766       O772   2.499       .  S
Cd766       O771   2.496       .  S
Cd766       O767   2.545       .  S
Cd766       O770   2.442       .  S
Cd766       O768   2.414       .  S
C769        O773   1.269       .  A
O774        C777   1.259       .  A
O774       Cd779   2.459       .  S
C775        O784   1.264       .  A
C775        O780   1.264       .  A
C775        C929   1.414       .  S
O776        C782   1.272       .  A
O776       Cd779   2.513       .  S
C777        O785   1.269       .  A
C778        O783   1.269       .  A
C778        O781   1.265       .  A
Cd779       O786   2.460       .  S
Cd779       O785   2.502       .  S
Cd779       O784   2.415       .  S
Cd779       O780   2.411       .  S
Cd779       O783   2.577       .  S
Cd779       O781   2.502       .  S
C782        O786   1.257       .  A
C782        C841   1.471       .  S
O787        C790   1.271       .  A
O787       Cd792   2.543       .  S
C788        O797   1.263       .  A
C788        O793   1.270       .  A
C788        C804   1.497       .  S
O789        C795   1.265       .  A
O789       Cd792   2.448       .  S
C790        O798   1.260       .  A
C790        C853   1.486       .  S
C791        O796   1.260       .  A
C791        O794   1.269       .  A
Cd792       O799   2.420       .  S
Cd792       O798   2.500       .  S
Cd792       O797   2.502       .  S
Cd792       O793   2.592       .  S
Cd792       O796   2.502       .  S
Cd792       O794   2.538       .  S
C795        O799   1.263       .  A
C795        C927   1.424       .  S
O800        C803   1.259       .  A
O800       Cd805   2.462       .  S
C801        O810   1.264       .  A
C801        O806   1.265       .  A
C801        C925   1.415       .  S
O802        C808   1.272       .  A
O802       Cd805   2.510       .  S
C803        O811   1.269       .  A
C804        O809   1.270       .  A
C804        O807   1.265       .  A
Cd805       O812   2.463       .  S
Cd805       O811   2.497       .  S
Cd805       O810   2.412       .  S
Cd805       O806   2.417       .  S
Cd805       O809   2.580       .  S
Cd805       O807   2.502       .  S
C808        O812   1.257       .  A
C808        C880   1.472       .  S
C813        C814   1.526       .  S
C813        C819   1.529       .  S
C813        C817   1.530       .  S
C813        C926   1.445       .  S
C814        H821   1.086       .  S
C814        C815   1.360       .  D
C815        C816   1.536   1_655  S
C815       C1018   1.423       .  S
C816        C820   1.533       .  S
C816        C818   1.532   1_455  S
C816        H822   1.112       .  S
C817        H823   1.087       .  S
C817        C818   1.356       .  D
C818        C923   1.432       .  S
C819        H824   1.086       .  S
C819        C820   1.363   1_655  D
C820        C932   1.429       .  S
C825        C826   1.527       .  S
C825        C831   1.529   1_455  S
C825        C829   1.530       .  S
C825        C930   1.445       .  S
C826        H833   1.086       .  S
C826        C827   1.360   1_455  D
C827        C828   1.535       .  S
C827       C1016   1.423       .  S
C828        C832   1.533       .  S
C828        C830   1.531       .  S
C828        H834   1.112       .  S
C829        H835   1.087       .  S
C829        C830   1.356   1_455  D
C830        C924   1.432       .  S
C831        H836   1.086       .  S
C831        C832   1.363       .  D
C832        C928   1.431       .  S
O837        C840   1.265       .  A
O837       Cd842   2.413       .  S
C838        O847   1.269       .  A
C838        O843   1.259       .  A
O839        C845   1.270       .  A
O839       Cd842   2.577       .  S
C840        O848   1.264       .  A
C840        C921   1.415       .  S
C841        O846   1.272       .  A
C841        O844   1.257       .  A
Cd842       O849   2.502       .  S
Cd842       O848   2.412       .  S
Cd842       O847   2.497       .  S
Cd842       O843   2.462       .  S
Cd842       O846   2.508       .  S
Cd842       O844   2.462       .  S
C845        O849   1.265       .  A
C845        C851   1.496   1_455  S
O850        C853   1.271       .  A
O850       Cd855   2.543       .  S
C851        O860   1.264       .  A
C851        O856   1.270       .  A
O852        C858   1.265       .  A
O852       Cd855   2.442       .  S
C853        O861   1.260       .  A
C854        O859   1.260       .  A
C854        O857   1.269       .  A
Cd855       O862   2.416       .  S
Cd855       O861   2.498       .  S
Cd855       O860   2.500       .  S
Cd855       O856   2.585       .  S
Cd855       O859   2.497       .  S
Cd855       O857   2.536       .  S
C858        O862   1.263       .  A
C858        C919   1.422       .  S
O863        C866   1.265       .  A
O863       Cd868   2.443       .  S
C864        O873   1.269       .  A
C864        O869   1.260       .  A
O865        C871   1.271       .  A
O865       Cd868   2.544       .  S
C866        O874   1.264       .  A
C866        C917   1.422       .  S
C867        O872   1.270       .  A
C867        O870   1.263       .  A
C867        C884   1.498   1_455  S
Cd868       O875   2.502       .  S
Cd868       O874   2.413       .  S
Cd868       O873   2.539       .  S
Cd868       O869   2.499       .  S
Cd868       O872   2.595       .  S
Cd868       O870   2.503       .  S
C871        O875   1.260       .  A
O876        C879   1.265       .  A
O876       Cd881   2.411       .  S
C877        O886   1.269       .  A
C877        O882   1.259       .  A
O878        C884   1.270       .  A
O878       Cd881   2.578       .  S
C879        O887   1.264       .  A
C879        C916   1.413       .  S
C880        O885   1.272       .  A
C880        O883   1.257       .  A
Cd881       O888   2.504       .  S
Cd881       O887   2.409       .  S
Cd881       O886   2.500       .  S
Cd881       O882   2.464       .  S
Cd881       O885   2.510       .  S
Cd881       O883   2.464       .  S
C884        O888   1.266       .  A
C889        C890   1.526       .  S
C889        C895   1.529       .  S
C889        C893   1.529       .  S
C889        C922   1.445       .  S
C890        H897   1.086       .  S
C890        C891   1.360       .  D
C891        C892   1.535       .  S
C891       C1030   1.422       .  S
C892        C896   1.532       .  S
C892        C894   1.532       .  S
C892        H898   1.112       .  S
C893        H899   1.087       .  S
C893        C894   1.356       .  D
C894        C914   1.431       .  S
C895        H900   1.086       .  S
C895        C896   1.364       .  D
C896        C918   1.429       .  S
C901        C902   1.530       .  S
C901        C907   1.527       .  S
C901        C905   1.528       .  S
C901        C915   1.443       .  S
C902        H909   1.086       .  S
C902        C903   1.356       .  D
C903        C904   1.531       .  S
C903        C913   1.431       .  S
C904        C908   1.535       .  S
C904        C906   1.532       .  S
C904        H910   1.112       .  S
C905        H911   1.086       .  S
C905        C906   1.363       .  D
C906        C920   1.429       .  S
C907        H912   1.086       .  S
C907        C908   1.360       .  D
C908       C1034   1.422       .  S
C913        C914   1.199   1_655  T
C915        C916   1.193       .  T
C917        C918   1.198       .  T
C919        C920   1.198       .  T
C921        C922   1.194       .  T
C923        C924   1.200       .  T
C925        C926   1.194       .  T
C927        C928   1.199       .  T
C929        C930   1.193       .  T
C931        C932   1.198       .  T
C933        C934   1.199       .  T
C935        C936   1.193       .  T
C937        C938   1.198       .  T
C939        C940   1.199       .  T
C941        C942   1.193       .  T
C943        C944   1.194   1_655  T
C945        C946   1.194   1_455  T
C947        C948   1.200       .  T
C949        C950   1.193       .  T
C951        C952   1.198       .  T
C953        C954   1.193       .  T
C955        C956   1.199       .  T
C957        C958   1.199   1_556  T
C959        C960   1.198       .  T
C961        C962   1.193       .  T
C963        C964   1.194       .  T
C965        C966   1.199       .  T
C967        C968   1.194       .  T
C969        C970   1.200   1_556  T
C971        C972   1.194       .  T
C973        C974   1.193       .  T
C975        C976   1.199       .  T
C977        C978   1.198       .  T
C979        C980   1.193       .  T
C981        C982   1.200       .  T
C983        C984   1.194       .  T
C985        C986   1.199       .  T
C987        C988   1.199       .  T
C989        C990   1.194       .  T
C991        C992   1.194   1_554  T
C993        C994   1.193   1_556  T
C995        C996   1.199       .  T
C997        C998   1.192       .  T
C999       C1000   1.198       .  T
C1001      C1002   1.193       .  T
C1003      C1004   1.198       .  T
C1005      C1006   1.200   1_565  T
C1007      C1008   1.193       .  T
C1009      C1010   1.199       .  T
C1011      C1012   1.198       .  T
C1013      C1014   1.193       .  T
C1015      C1016   1.194   1_565  T
C1017      C1018   1.194   1_565  T
C1019      C1020   1.200       .  T
C1021      C1022   1.193       .  T
C1023      C1024   1.198       .  T
C1025      C1026   1.199       .  T
C1027      C1028   1.194       .  T
C1029      C1030   1.194       .  T
C1031      C1032   1.199   1_655  T
C1033      C1034   1.194       .  T
C1035      C1036   1.199       .  T
C1037      C1038   1.192       .  T
C1039      C1040   1.193       .  T
C1041      C1042   1.198       .  T
C1043      C1044   1.194       .  T
C1045      C1046   1.199   1_565  T
C1047      C1048   1.194       .  T
C1049      C1050   1.198       .  T
C1051      C1052   1.193       .  T
C1053      C1054   1.193       .  T
C1055      C1056   1.198       .  T
