geometry optimzed in LAMMPS
_audit_creation_date              2020-11-30 
_audit_creation_method            'lammps2cif' 
_symmetry_space_group_name_H-M    'P1' 
_symmetry_Int_Tables_number       1 
_symmetry_cell_setting            triclinic 
loop_ 
_symmetry_equiv_pos_as_xyz 
  x,y,z 
_cell_length_a                    35.04833387 
_cell_length_b                    35.59589723959677 
_cell_length_c                    33.036670659517064 
_cell_angle_alpha                 90.8784828428106 
_cell_angle_beta                  88.88327363063559 
_cell_angle_gamma                 89.88261139809354 
loop_ 
_atom_site_label 
_atom_site_type_symbol 
_atom_site_fract_x 
_atom_site_fract_y 
_atom_site_fract_z 
_atom_site_charge 
O1          O  0.45873050  0.40992647  0.49305532    -0.79600
O2          O  0.53345032  0.56400441  0.49301198    -0.79600
O3          O  0.40584481  0.51620988  0.48254566    -0.79600
O4          O  0.54537328  0.44273730  0.45008550    -0.79500
O5          O  0.46097586  0.54559437  0.47450207    -0.79700
O6          O  0.53536297  0.40043569  0.49674128    -0.79600
O7          O  0.54469098  0.51995431  0.44847364    -0.79600
O8          O  0.45298855  0.45981348  0.45465100    -0.79600
C9          C  0.44889858  0.42473639  0.45977292     1.10100
C10         C  0.54675837  0.55427404  0.45853957     1.10000
C11         C  0.42516909  0.54196830  0.46598992     1.10100
C12         C  0.54705054  0.40912909  0.46151151     1.10000
O13         O  0.53746744  0.43731453  0.57438123    -0.79600
O14         O  0.47580892  0.57926389  0.54626782    -0.79700
O15         O  0.41552472  0.45658714  0.53172280    -0.79600
O16         O  0.57899571  0.52154100  0.52874032    -0.79600
O17         O  0.53038563  0.53073041  0.57110861    -0.79600
O18         O  0.45836222  0.44304998  0.57532876    -0.79600
O19         O  0.58266832  0.44538944  0.52790478    -0.79500
O20         O  0.44040726  0.52824390  0.55448181    -0.79600
Co21       Co  0.49765698  0.42644018  0.53456819     1.51500
Co22       Co  0.49494723  0.53385146  0.52494550     1.51700
Co23       Co  0.45028083  0.49359726  0.50272752     1.51600
Co24       Co  0.55909195  0.48228850  0.48935922     1.51500
O25         O  0.50487214  0.47943918  0.51294477    -1.41500
C26         C  0.57208740  0.43442508  0.56294401     1.10000
C27         C  0.44753591  0.56330368  0.56301893     1.10100
C28         C  0.42389418  0.44148118  0.56487760     1.10100
C29         C  0.56572556  0.53422559  0.56257609     1.10000
O30         O  0.91666133  0.49878833  0.04884795    -0.79600
O31         O  0.05963354  0.56997405  0.06734258    -0.79600
O32         O  0.04337551  0.44823591  0.03106777    -0.79600
O33         O  0.96936610  0.60330585  0.02754194    -0.79500
O34         O  0.05774081  0.49338241  0.07210673    -0.79700
O35         O  0.96420472  0.55631221  0.06987489    -0.79600
O36         O  0.04610410  0.61110406  0.02037695    -0.79600
O37         O  0.97209397  0.47106534  0.05872000    -0.79600
C38         C  0.93601017  0.47461979  0.06743399     1.10100
C39         C  0.05868344  0.60347756  0.05523342     1.10000
C40         C  0.05908525  0.45889839  0.06322550     1.10100
C41         C  0.95925935  0.59074513  0.06224698     1.10000
O42         O  0.92653967  0.55521589  0.99427613    -0.79600
O43         O  0.08645375  0.48813286  0.98719228    -0.79700
O44         O  0.98219522  0.43128198  0.98938498    -0.79600
O45         O  0.04657748  0.56927001  0.94426917    -0.79600
O46         O  0.09306954  0.56460500  0.98734254    -0.79600
O47         O  0.94981247  0.48289065  0.97600519    -0.79600
O48         O  0.96945762  0.56381889  0.94783920    -0.79500
O49         O  0.03369667  0.47815235  0.95330803    -0.79600
Co50       Co  0.96078764  0.51980744  0.02464944     1.51500
Co51       Co  0.07052850  0.52900700  0.02826673     1.51700
Co52       Co  0.00284358  0.47801548  0.00403927     1.51600
Co53       Co  0.00806800  0.58353951  0.98555716     1.51500
O54         O  0.01523656  0.53248661  0.01051911    -1.41500
C55         C  0.93506142  0.56625190  0.95897475     1.10000
C56         C  0.06954135  0.47431536  0.95630873     1.10100
C57         C  0.95534138  0.44707461  0.97126529     1.10100
C58         C  0.08109087  0.57396720  0.95287542     1.10000
C59         C  0.79631624  0.28384273  0.78822195     0.87100
C60         C  0.76713480  0.30604959  0.76411021    -0.53200
C61         C  0.74586316  0.28493373  0.73840044     0.10000
C62         C  0.75585744  0.24270672  0.73874402     0.20900
C63         C  0.77315974  0.25303537  0.80908812    -0.53900
C64         C  0.75263506  0.23071916  0.78349229     0.10100
C65         C  0.81993458  0.26376865  0.75466593    -0.53400
C66         C  0.79891574  0.24179530  0.72923078     0.10600
H67         H  0.76507780  0.33647510  0.76455435     0.15200
H68         H  0.73868471  0.22547062  0.71772485     0.00900
H69         H  0.77311825  0.24948468  0.84165156     0.15500
H70         H  0.85048563  0.26725174  0.75046243     0.15300
O71         O  0.54692473  0.05402581  0.92378594    -0.79600
O72         O  0.48553708  0.90853733  0.95265621    -0.79600
O73         O  0.58883340  0.96784977  0.96376105    -0.79600
O74         O  0.42613501  0.03074993  0.96696624    -0.79500
O75         O  0.53916875  0.95777602  0.92505784    -0.79700
O76         O  0.47013042  0.04562274  0.92376711    -0.79600
O77         O  0.45317887  0.96096015  0.94265461    -0.79600
O78         O  0.59253867  0.04464287  0.96757048    -0.79600
C79         C  0.58137449  0.05659059  0.93359976     1.10100
C80         C  0.45925477  0.92564221  0.93466698     1.10000
C81         C  0.57459665  0.95431219  0.93134547     1.10100
C82         C  0.43536242  0.04614131  0.93384328     1.10000
O83         O  0.46629633  0.07668248  0.00686033    -0.79600
O84         O  0.54493658  0.92359381  0.00191962    -0.79700
O85         O  0.55546485  0.04375030  0.04714610    -0.79600
O86         O  0.41600519  0.96985151  0.01495484    -0.79600
O87         O  0.47144828  0.94251350  0.02515739    -0.79600
O88         O  0.54257808  0.08785190  0.00388588    -0.79600
O89         O  0.46104321  0.02620122  0.04431267    -0.79500
O90         O  0.55385062  0.96833883  0.04536133    -0.79600
Co91       Co  0.50683429  0.06235431  0.96490082     1.51500
Co92       Co  0.50499946  0.95403235  0.97331654     1.51700
Co93       Co  0.56913952  0.00623881  0.00540824     1.51600
Co94       Co  0.46056796  0.99375816  0.99516070     1.51500
O95         O  0.51498661  0.00898682  0.98442618    -1.41500
C96         C  0.45586167  0.06115120  0.03987691     1.10000
C97         C  0.55933213  0.93471209  0.03476220     1.10100
C98         C  0.55356135  0.07799492  0.03859144     1.10100
C99         C  0.43504666  0.94496338  0.03264369     1.10000
C100        C  0.21929009  0.78816212  0.71465615     0.87100
C101        C  0.24612700  0.81229559  0.74000827    -0.53200
C102        C  0.27099329  0.79244698  0.76248691     0.10000
C103        C  0.26666521  0.74968753  0.75825638     0.20900
C104        C  0.24551293  0.76118807  0.68989978    -0.53900
C105        C  0.27039638  0.74114137  0.71266258     0.10100
C106        C  0.19969880  0.76208556  0.74561894    -0.53400
C107        C  0.22451594  0.74201186  0.76835649     0.10600
H108        H  0.24608084  0.84279366  0.73939318     0.15200
H109        H  0.28713185  0.73385649  0.77659048     0.00900
H110        H  0.24395788  0.75764516  0.65728914     0.15500
H111        H  0.16929493  0.75725126  0.74816454     0.15300
O112        O  0.95793879  0.09324218  0.49261314    -0.79600
O113        O  0.03528761  0.95018273  0.51980718    -0.79600
O114        O  0.95117217  0.97509144  0.54460597    -0.79600
O115        O  0.04016570  0.03722694  0.53962245    -0.79500
O116        O  0.96388093  0.93038064  0.50091922    -0.79700
O117        O  0.03484692  0.08602724  0.49957388    -0.79600
O118        O  0.08951384  0.98166089  0.51381793    -0.79600
O119        O  0.94947226  0.05167983  0.54022843    -0.79600
C120        C  0.94666004  0.08485143  0.52811546     1.10100
C121        C  0.07039867  0.95561654  0.53005197     1.10000
C122        C  0.95055547  0.94051329  0.53532460     1.10100
C123        C  0.04395959  0.07229146  0.53367785     1.10000
O124        O  0.03828395  0.05051174  0.41781504    -0.79600
O125        O  0.96655794  0.96204589  0.42199468    -0.79700
O126        O  0.91362321  0.04632723  0.46082198    -0.79600
O127        O  0.05694428  0.96729715  0.44130964    -0.79600
O128        O  0.02268978  0.91516482  0.44822350    -0.79600
O129        O  0.96053231  0.05345835  0.41611938    -0.79600
O130        O  0.07914277  0.03936606  0.46412219    -0.79500
O131        O  0.91817223  0.97118776  0.46441204    -0.79600
Co132      Co  0.99774521  0.06723290  0.45696895     1.51500
Co133      Co  0.00194460  0.96046130  0.46853597     1.51700
Co134      Co  0.93673130  0.01139232  0.50220343     1.51600
Co135      Co  0.04489465  0.00228943  0.49239299     1.51500
O136        O  0.99091267  0.01472124  0.47972876    -1.41500
C137        C  0.07210500  0.05256948  0.42981874     1.10000
C138        C  0.93122194  0.95846666  0.43075660     1.10100
C139        C  0.92549335  0.05547724  0.42547679     1.10100
C140        C  0.05074882  0.93217099  0.43215755     1.10000
C141        C  0.70750011  0.73042321  0.28189906     0.87100
C142        C  0.73774874  0.70885663  0.25610272    -0.53200
C143        C  0.76099676  0.73103542  0.23269436     0.10000
C144        C  0.75113186  0.77336845  0.23655017     0.20900
C145        C  0.73025300  0.76021671  0.30561567    -0.53900
C146        C  0.75352197  0.78247082  0.28227962     0.10100
C147        C  0.68604933  0.75286798  0.24995055    -0.53400
C148        C  0.70819797  0.77610500  0.22725052     0.10600
H149        H  0.74054214  0.67848954  0.25626894     0.15200
H150        H  0.76936438  0.79120638  0.21697964     0.00900
H151        H  0.72849494  0.76302082  0.33837010     0.15500
H152        H  0.65610245  0.74967783  0.24343376     0.15300
C153        C  0.23378012  0.27939495  0.21230972     0.87100
C154        C  0.25980541  0.30141153  0.24082241    -0.53200
C155        C  0.28218091  0.27979561  0.26443132     0.10000
C156        C  0.27712941  0.23700243  0.25687724     0.20900
C157        C  0.26171442  0.25381992  0.18776575    -0.53900
C158        C  0.28446556  0.23141608  0.21067453     0.10100
C159        C  0.21177891  0.25173028  0.23924963    -0.53400
C160        C  0.23383919  0.22958310  0.26289290     0.10600
H161        H  0.26082864  0.33190112  0.24192337     0.15200
H162        H  0.29527197  0.21950499  0.27624483     0.00900
H163        H  0.26378806  0.25264311  0.15511900     0.15500
H164        H  0.18091188  0.24932826  0.23886490     0.15300
C165        C  0.77435759  0.28631127  0.21634417     0.87100
C166        C  0.79679148  0.25435119  0.23591227    -0.53200
C167        C  0.77453408  0.22839254  0.25498603     0.10000
C168        C  0.73151911  0.23577315  0.25175129     0.20900
C169        C  0.74698591  0.26539382  0.18751444    -0.53900
C170        C  0.72478533  0.23914738  0.20614952     0.10100
C171        C  0.74778729  0.30201691  0.24997952    -0.53400
C172        C  0.72537201  0.27584084  0.26866599     0.10600
H173        H  0.82772673  0.25257281  0.23515704     0.15200
H174        H  0.71395854  0.21400413  0.26669805     0.00900
H175        H  0.74493402  0.26950590  0.15527753     0.15500
H176        H  0.74615227  0.33175875  0.25768175     0.15300
C177        C  0.29255958  0.72611235  0.28329095     0.87100
C178        C  0.32006319  0.75030360  0.25780093    -0.53200
C179        C  0.30233206  0.77445091  0.23233048     0.10000
C180        C  0.25849408  0.77284262  0.23515757     0.20900
C181        C  0.26639416  0.75528841  0.30529279    -0.53900
C182        C  0.24865253  0.77935305  0.28015719     0.10100
C183        C  0.26610107  0.70718079  0.25247810    -0.53400
C184        C  0.24851312  0.73132028  0.22685125     0.10600
H185        H  0.35087802  0.74877220  0.25997512     0.15200
H186        H  0.24426645  0.79290784  0.21490851     0.00900
H187        H  0.26055232  0.75719701  0.33724394     0.15500
H188        H  0.26039578  0.67727366  0.25269436     0.15300
C189        C  0.25292794  0.22164163  0.78494172     0.87100
C190        C  0.27525022  0.24804354  0.75670927    -0.53200
C191        C  0.25325790  0.27123257  0.73404877     0.10000
C192        C  0.20982411  0.26544359  0.74128859     0.20900
C193        C  0.22707149  0.24897071  0.80996896    -0.53900
C194        C  0.20391587  0.27159112  0.78766678     0.10100
C195        C  0.22482846  0.20060618  0.75758015    -0.53400
C196        C  0.20251027  0.22288164  0.73439885     0.10600
H197        H  0.30619553  0.24957832  0.75616459     0.15200
H198        H  0.19176480  0.28369904  0.72255469     0.00900
H199        H  0.22769387  0.25195792  0.84245738     0.15500
H200        H  0.22291941  0.17017425  0.75642350     0.15300
C201        C  0.78877389  0.76522539  0.71097451     0.87100
C202        C  0.80731509  0.74119219  0.74403134    -0.53200
C203        C  0.78200193  0.72268179  0.76893611     0.10000
C204        C  0.73981908  0.72977955  0.75802997     0.20900
C205        C  0.76338655  0.73675997  0.68859659    -0.53900
C206        C  0.73778241  0.71798561  0.71275435     0.10100
C207        C  0.76112975  0.79098165  0.73474465    -0.53400
C208        C  0.73560782  0.77305144  0.75925226     0.10600
H209        H  0.83773541  0.73767571  0.74740615     0.15200
H210        H  0.71877787  0.71573241  0.77804507     0.00900
H211        H  0.76585423  0.73150919  0.65620581     0.15500
H212        H  0.76251879  0.82142740  0.73336240     0.15300
C213        C  0.08667586  0.15731009  0.58993046    -0.13800
C214        C  0.10883604  0.13987447  0.61928973     0.16600
C215        C  0.10728016  0.10016229  0.62200522     0.02900
C216        C  0.08422019  0.07928793  0.59539006    -0.12300
C217        C  0.06304724  0.09658589  0.56498906    -0.03400
C218        C  0.06406602  0.13640043  0.56293060     0.02100
C219        C  0.13161532  0.16360576  0.64820354     0.09000
N220        N  0.13010629  0.08032680  0.65039367     0.65300
H221        H  0.08448807  0.04892702  0.59727846     0.18200
N222        N  0.04203062  0.15632330  0.53409723     0.75800
H223        H  0.08648329  0.18768933  0.58831898     0.09700
C224        C  0.15740233  0.19190971  0.63508787     0.03400
C225        C  0.17808613  0.21302288  0.66388270    -0.05300
C226        C  0.17456227  0.20600542  0.70548796    -0.23700
C227        C  0.14779990  0.17885580  0.71838403     0.12700
C228        C  0.12657828  0.15839625  0.69002501    -0.12800
N229        N  0.16449241  0.19831187  0.59279900     0.64400
H230        H  0.19885949  0.23334843  0.65349711     0.12200
N231        N  0.14087056  0.17257282  0.76046967     0.61000
H232        H  0.10592077  0.13810144  0.70087249     0.08400
O233        O  0.00626393  0.15246989  0.53384747    -0.40500
O234        O  0.05723441  0.18227683  0.51381279    -0.39600
O235        O  0.11670367  0.05202647  0.66828529    -0.39600
O236        O  0.16483785  0.08858629  0.65457236    -0.37300
O237        O  0.11948292  0.19505984  0.78019598    -0.38200
O238        O  0.14834878  0.14091709  0.77510512    -0.34400
O239        O  0.16918725  0.23134220  0.58027126    -0.35800
O240        O  0.17005731  0.17095971  0.56860768    -0.40100
C241        C  0.20953836  0.13802069  0.31796352    -0.13800
C242        C  0.17517436  0.14799435  0.33790048     0.16600
C243        C  0.16220166  0.18533069  0.33582569     0.02900
C244        C  0.18256763  0.21155394  0.31275068    -0.12300
C245        C  0.21603328  0.20141742  0.29089478    -0.03400
C246        C  0.22993961  0.16425497  0.29443327     0.02100
C247        C  0.15221628  0.11940957  0.36007571     0.09000
N248        N  0.12783111  0.19681161  0.35649771     0.65300
H249        H  0.17165279  0.23999466  0.31134079     0.18200
N250        N  0.26299947  0.15180126  0.27205872     0.75800
H251        H  0.21981077  0.10935278  0.31943646     0.09700
C252        C  0.12241132  0.09985946  0.34097890     0.03400
C253        C  0.09719985  0.07759983  0.36393152    -0.05300
C254        C  0.10166842  0.07336374  0.40585409    -0.23700
C255        C  0.13244525  0.09211844  0.42462710     0.12700
C256        C  0.15705872  0.11506692  0.40175444    -0.12800
N257        N  0.11690737  0.10314679  0.29838961     0.64400
H258        H  0.07388595  0.06361179  0.34883871     0.12200
N259        N  0.13739571  0.09059206  0.46740434     0.61000
H260        H  0.17938380  0.13055236  0.41688735     0.08400
O261        O  0.26063199  0.14524381  0.23456364    -0.40500
O262        O  0.29181123  0.14040097  0.29066815    -0.39600
O263        O  0.12948627  0.21469241  0.38968441    -0.39600
O264        O  0.09608376  0.19238226  0.33972941    -0.37300
O265        O  0.12671865  0.11792168  0.48964112    -0.38200
O266        O  0.15783452  0.06510051  0.48195931    -0.34400
O267        O  0.14143920  0.08978349  0.27364822    -0.35800
O268        O  0.08590158  0.11593244  0.28546815    -0.40100
C269        C  0.82474237  0.82982731  0.62456554    -0.13800
C270        C  0.86346243  0.83434351  0.63301595     0.16600
C271        C  0.87842384  0.81585510  0.66661297     0.02900
C272        C  0.85453676  0.79355798  0.69116905    -0.12300
C273        C  0.81540230  0.78838407  0.68282047    -0.03400
C274        C  0.80072839  0.80758422  0.64891302     0.02100
C275        C  0.88711627  0.86074541  0.60837117     0.09000
N276        N  0.91797297  0.81946726  0.67617172     0.65300
H277        H  0.86728062  0.78107728  0.71714351     0.18200
N278        N  0.76123404  0.80544228  0.63887304     0.75800
H279        H  0.81267654  0.84470033  0.59943836     0.09700
C280        C  0.89811855  0.85207815  0.56805331     0.03400
C281        C  0.92036581  0.87753792  0.54570463    -0.09300
C282        C  0.93122233  0.91255680  0.56223973    -0.23700
C283        C  0.92054001  0.92093454  0.60295817     0.12700
C284        C  0.89889252  0.89505800  0.62553385    -0.12800
N285        N  0.88679209  0.81750919  0.54931014     0.64400
H286        H  0.92789525  0.87033399  0.51457651     0.12200
N287        N  0.93154853  0.95546691  0.62198337     0.61000
H288        H  0.89091023  0.90194516  0.65663037     0.08400
O289        O  0.75197077  0.79076475  0.60547551    -0.40500
O290        O  0.73717494  0.82547327  0.65825279    -0.39600
O291        O  0.92757990  0.82884993  0.71152451    -0.39600
O292        O  0.94341053  0.81107809  0.64997958    -0.37300
O293        O  0.90689122  0.98061044  0.62958703    -0.38200
O294        O  0.96495602  0.95924268  0.63499745    -0.34400
O295        O  0.85367394  0.81438841  0.53534586    -0.35800
O296        O  0.91156598  0.79276870  0.54059964    -0.40100
C297        C  0.19859039  0.86071610  0.33421698    -0.13800
C298        C  0.16030825  0.84934553  0.33233030     0.16600
C299        C  0.15095603  0.81646189  0.30996747     0.02900
C300        C  0.18045792  0.79457986  0.29243927    -0.12300
C301        C  0.21869893  0.80536061  0.29558052    -0.03400
C302        C  0.22781429  0.83880464  0.31642333     0.02100
C303        C  0.13136350  0.87015139  0.35731702     0.09000
N304        N  0.11199689  0.80462191  0.30545386     0.65300
H305        H  0.17362568  0.76840621  0.27717155     0.18200
N306        N  0.26666009  0.84996638  0.32126791     0.75800
H307        H  0.20598800  0.88568453  0.35151388     0.09700
C308        C  0.10995492  0.85228050  0.38820039     0.03400
C309        C  0.08230407  0.87290784  0.41022414    -0.05300
C310        C  0.07652165  0.91136964  0.40363927    -0.23700
C311        C  0.09765415  0.92916617  0.37249269     0.12700
C312        C  0.12504814  0.90837402  0.34995967    -0.12800
N313        N  0.11693917  0.81383866  0.39877945     0.64400
H314        H  0.06658442  0.85913009  0.43428450     0.12200
N315        N  0.09069839  0.96762108  0.36225521     0.61000
H316        H  0.14101420  0.92187034  0.32583886     0.08400
O317        O  0.28746724  0.83265492  0.34557642    -0.40500
O318        O  0.27814139  0.88057426  0.30667105    -0.39600
O319        O  0.08579079  0.82854975  0.30123266    -0.39600
O320        O  0.10408190  0.77012832  0.30218478    -0.37300
O321        O  0.11802359  0.98826289  0.35095885    -0.38200
O322        O  0.05691586  0.97935100  0.35875645    -0.34400
O323        O  0.15067056  0.80166045  0.40111771    -0.35800
O324        O  0.08968443  0.79331349  0.41054942    -0.40100
C325        C  0.81612040  0.86911154  0.30127645    -0.13800
C326        C  0.83697893  0.85780269  0.33482417     0.16600
C327        C  0.83072314  0.82158647  0.35051116     0.02900
C328        C  0.80274518  0.79826344  0.33362958    -0.12300
C329        C  0.78146537  0.80953983  0.30024118    -0.03400
C330        C  0.78867202  0.84536981  0.28384714     0.02100
C331        C  0.86057677  0.88568388  0.35727066     0.09000
N332        N  0.85293347  0.80803833  0.38333344     0.65300
H333        H  0.79859515  0.77045771  0.34582026     0.18200
N334        N  0.76611965  0.85950120  0.25190714     0.75800
H335        H  0.81985822  0.89722851  0.28974141     0.09700
C336        C  0.89373338  0.90216040  0.34053464     0.03400
C337        C  0.91589423  0.92676179  0.36422975    -0.05300
C338        C  0.90528437  0.93572886  0.40459269    -0.23700
C339        C  0.87093855  0.92000988  0.42060483     0.12700
C340        C  0.84943168  0.89532082  0.39694988    -0.12800
N341        N  0.90617705  0.89275978  0.30022395     0.64400
H342        H  0.94192883  0.93820829  0.35126207     0.12200
N343        N  0.85798931  0.92724186  0.46140959     0.61000
H344        H  0.82368854  0.88320762  0.40992243     0.08400
O345        O  0.78133100  0.86449381  0.21748714    -0.40500
O346        O  0.73484143  0.87549352  0.26065094    -0.39600
O347        O  0.83723260  0.78965115  0.41143416    -0.39600
O348        O  0.88872302  0.81208160  0.38284063    -0.37300
O349        O  0.84248310  0.95835798  0.47045700    -0.38200
O350        O  0.85407112  0.90019896  0.48538667    -0.34400
O351        O  0.90211239  0.91608523  0.27225368    -0.35800
O352        O  0.92439566  0.86266053  0.29329872    -0.40100
C353        C  0.83733347  0.08813065  0.36956236    -0.13800
C354        C  0.85319071  0.11609566  0.34487719     0.16600
C355        C  0.89293938  0.12279373  0.34580455     0.02900
C356        C  0.91568933  0.10118612  0.37090454    -0.12300
C357        C  0.89983096  0.07395787  0.39657303    -0.03400
C358        C  0.86023536  0.06719696  0.39542031     0.02100
C359        C  0.82796357  0.13906065  0.31936854     0.09000
N360        N  0.91050545  0.15239670  0.32292993     0.65300
H361        H  0.94593896  0.10728436  0.37193713     0.18200
N362        N  0.84305323  0.03838876  0.41915828     0.75800
H363        H  0.80694215  0.08267545  0.36887784     0.09700
C364        C  0.83510495  0.14309080  0.27730564     0.03400
C365        C  0.81723728  0.17246191  0.25691156    -0.05300
C366        C  0.79090150  0.19632468  0.27693600    -0.23700
C367        C  0.78136211  0.18995892  0.31786276     0.12700
C368        C  0.79997963  0.16155045  0.33872423    -0.12800
N369        N  0.86083591  0.11823229  0.25533256     0.64400
H370        H  0.82387651  0.17680399  0.22518221     0.12200
N371        N  0.75585655  0.21455102  0.33976618     0.61000
H372        H  0.79446203  0.15877575  0.37093834     0.08400
O373        O  0.83305185  0.00812262  0.40209955    -0.40500
O374        O  0.83100268  0.04597681  0.45459061    -0.39600
O375        O  0.89569512  0.18475742  0.32282395    -0.39600
O376        O  0.94317699  0.14754702  0.30689595    -0.37300
O377        O  0.76744087  0.24640311  0.35135913    -0.38200
O378        O  0.72457004  0.20214200  0.35350196    -0.34400
O379        O  0.86400553  0.08430151  0.26537517    -0.35800
O380        O  0.87792156  0.12913915  0.22364131    -0.40100
C381        C  0.18754333  0.85975966  0.63590523    -0.13800
C382        C  0.14854694  0.86394289  0.64489118     0.16600
C383        C  0.13176882  0.84222555  0.67578756     0.02900
C384        C  0.15440853  0.81696136  0.69703401    -0.12300
C385        C  0.19392893  0.81298534  0.68872098    -0.03400
C386        C  0.21032965  0.83527997  0.65764161     0.02100
C387        C  0.12572659  0.88936505  0.61962601     0.09000
N388        N  0.09212136  0.84634118  0.68691577     0.65300
H389        H  0.14064147  0.80218879  0.72142447     0.18200
N390        N  0.25025708  0.83371456  0.64771574     0.75800
H391        H  0.20057060  0.87582491  0.61171109     0.09700
C392        C  0.13700759  0.92688741  0.61289386     0.03400
C393        C  0.11847094  0.94785347  0.58355041    -0.05300
C394        C  0.08795648  0.93271539  0.56173481    -0.23700
C395        C  0.07538893  0.89596428  0.57029257     0.12700
C396        C  0.09456399  0.87460588  0.59870790    -0.12800
N397        N  0.16682454  0.94412202  0.63587776     0.64400
H398        H  0.12759110  0.97646398  0.57824496     0.12200
N399        N  0.04483392  0.87895355  0.54868009     0.61000
H400        H  0.08601661  0.84570473  0.60323765     0.08400
O401        O  0.27293924  0.85501374  0.66632969    -0.40500
O402        O  0.26106579  0.81871860  0.61457010    -0.39600
O403        O  0.07237914  0.81780361  0.69543340    -0.39600
O404        O  0.07747777  0.87861500  0.69134940    -0.37300
O405        O  0.05087771  0.86634546  0.51324495    -0.38200
O406        O  0.01458463  0.87000251  0.56745240    -0.34400
O407        O  0.19008078  0.96629024  0.61906700    -0.35800
O408        O  0.16787388  0.93996000  0.67372542    -0.40100
C409        C  0.59677426  0.12162047  0.13262036    -0.13800
C410        C  0.61425333  0.15356607  0.11638958     0.16600
C411        C  0.60764959  0.16289925  0.07561819     0.02900
C412        C  0.58457235  0.13947218  0.05197779    -0.12300
C413        C  0.56899143  0.10620301  0.06746618    -0.03400
C414        C  0.57392179  0.09805382  0.10889856     0.02100
C415        C  0.64024020  0.17586074  0.14231812     0.09000
N416        N  0.62584738  0.19457566  0.05696320     0.65300
H417        H  0.58135389  0.14587954  0.02029794     0.18200
N418        N  0.55587068  0.06624005  0.12739261     0.75800
H419        H  0.60098362  0.11502403  0.16414378     0.09700
C420        C  0.63547489  0.21500686  0.14891633     0.03400
C421        C  0.66419495  0.23524716  0.16870602    -0.05300
C422        C  0.69608442  0.21695299  0.18416471    -0.23700
C423        C  0.69984354  0.17784815  0.17928432     0.12700
C424        C  0.67201228  0.15764439  0.15843221    -0.12800
N425        N  0.60164373  0.23430356  0.13644348     0.64400
H426        H  0.66117086  0.26532518  0.17326305     0.12200
N427        N  0.73311958  0.15877785  0.19275107     0.61000
H428        H  0.67605100  0.12774401  0.15324693     0.08400
O429        O  0.52126752  0.05915070  0.12071577    -0.40500
O430        O  0.57285788  0.04808863  0.15422645    -0.39600
O431        O  0.66090331  0.20075105  0.06201855    -0.39600
O432        O  0.60808774  0.21375139  0.03155251    -0.37300
O433        O  0.72987311  0.13172996  0.21681212    -0.38200
O434        O  0.76516348  0.16567940  0.17647728    -0.34400
O435        O  0.56952325  0.21837926  0.13857278    -0.35800
O436        O  0.60313728  0.26856830  0.12722503    -0.40100
C437        C  0.37190464  0.16912691  0.18559671    -0.13800
C438        C  0.36044141  0.15121998  0.14973375     0.16600
C439        C  0.32349601  0.15804103  0.13538260     0.02900
C440        C  0.29944960  0.18366066  0.15613947    -0.12300
C441        C  0.31120987  0.20307267  0.19123002    -0.03400
C442        C  0.34785152  0.19508409  0.20627738     0.02100
C443        C  0.38854832  0.12915248  0.12475215     0.09000
N444        N  0.31018396  0.13948257  0.09946717     0.65300
H445        H  0.27101743  0.18807003  0.14482859     0.18200
N446        N  0.36247556  0.21527500  0.24030133     0.75800
H447        H  0.40053644  0.16451776  0.19631961     0.09700
C448        C  0.40579990  0.14495041  0.09011741     0.03400
C449        C  0.42848392  0.12253571  0.06397180    -0.05300
C450        C  0.43455245  0.08411583  0.07125934    -0.23700
C451        C  0.41761176  0.06851508  0.10653671     0.12700
C452        C  0.39503361  0.09114126  0.13289702    -0.12800
N453        N  0.39969905  0.18359545  0.08055821     0.64400
H454        H  0.44094765  0.13539732  0.03732336     0.12200
N455        N  0.42126832  0.02944514  0.11506347     0.61000
H456        H  0.38130238  0.07862011  0.15906839     0.08400
O457        O  0.37581987  0.19754465  0.26965511    -0.40500
O458        O  0.36895190  0.24997639  0.23745500    -0.39600
O459        O  0.31349792  0.10431004  0.09528055    -0.39600
O460        O  0.29210382  0.15769367  0.07351241    -0.37300
O461        O  0.44896921  0.01809341  0.13544383    -0.38200
O462        O  0.39398381  0.00743834  0.10777468    -0.34400
O463        O  0.40921787  0.20917342  0.10521315    -0.35800
O464        O  0.38799196  0.19231843  0.04604603    -0.40100
C465        C  0.35987423  0.89531517  0.09752095    -0.13800
C466        C  0.38261941  0.87645679  0.12518963     0.16600
C467        C  0.42277865  0.87897582  0.12131117     0.02900
C468        C  0.43909960  0.90082250  0.09045038    -0.12300
C469        C  0.41632859  0.92035952  0.06316087    -0.03400
C470        C  0.37610779  0.91660221  0.06626503     0.02100
C471        C  0.36367416  0.85138301  0.15512346     0.09000
N472        N  0.44733431  0.86006189  0.14874767     0.65300
H473        H  0.46989558  0.90319677  0.08844776     0.18200
N474        N  0.35134496  0.93231070  0.03681697     0.75800
H475        H  0.32913833  0.89210424  0.09920494     0.09700
C476        C  0.33440754  0.86446741  0.18194731     0.03400
C477        C  0.31427702  0.83860450  0.20599012    -0.05300
C478        C  0.32340555  0.80019825  0.20481764    -0.23700
C479        C  0.35289659  0.78725231  0.17825096     0.12700
C480        C  0.37262017  0.81295657  0.15387411    -0.12800
N481        N  0.32547936  0.90382655  0.18582542     0.64400
H482        H  0.29208417  0.84867857  0.22673854     0.12200
N483        N  0.36157816  0.74798501  0.17371423     0.61000
H484        H  0.39411691  0.80263791  0.13242812     0.08400
O485        O  0.35627255  0.92403767  0.99977372    -0.40500
O486        O  0.32092946  0.94871823  0.04818826    -0.39600
O487        O  0.47743028  0.84411323  0.13566029    -0.39600
O488        O  0.44043602  0.86136992  0.18639293    -0.37300
O489        O  0.33493826  0.72448200  0.17025067    -0.38200
O490        O  0.39555022  0.73733322  0.16717906    -0.34400
O491        O  0.29163959  0.91435018  0.19343941    -0.35800
O492        O  0.35181035  0.92798682  0.18551861    -0.40100
C493        C  0.61308304  0.89617741  0.84078348    -0.13800
C494        C  0.63869454  0.87174193  0.85971053     0.16600
C495        C  0.64368451  0.87589746  0.90205976     0.02900
C496        C  0.62442973  0.90481849  0.92363538    -0.12300
C497        C  0.59841382  0.92877547  0.90487799    -0.03400
C498        C  0.59252430  0.92406144  0.86290728     0.02100
C499        C  0.66223812  0.84421636  0.83467800     0.09000
N500        N  0.66671306  0.84998354  0.92404165     0.65300
H501        H  0.62802975  0.90703851  0.95609963     0.18200
N502        N  0.56649458  0.94780696  0.84213736     0.75800
H503        H  0.60954554  0.89409775  0.80833102     0.09700
C504        C  0.64634890  0.81972405  0.80509457     0.03400
C505        C  0.67046250  0.79566213  0.78164517    -0.05300
C506        C  0.70998992  0.79494443  0.78743751    -0.23700
C507        C  0.72558904  0.81885364  0.81715183     0.12700
C508        C  0.70200779  0.84348379  0.83975726    -0.12800
N509        N  0.60600191  0.81870130  0.79855262     0.64400
H510        H  0.65833865  0.77769236  0.75849183     0.12200
N511        N  0.76556639  0.81814802  0.82489806     0.61000
H512        H  0.71502005  0.86230115  0.86154188     0.08400
O513        O  0.54396027  0.93384555  0.81666703    -0.40500
O514        O  0.56775306  0.98302202  0.84707281    -0.39600
O515        O  0.68559354  0.86133737  0.95398923    -0.39600
O516        O  0.66490022  0.81514956  0.91653652    -0.37300
O517        O  0.78667432  0.84454728  0.81284068    -0.38200
O518        O  0.77886084  0.79361007  0.84793404    -0.34400
O519        O  0.59352233  0.81657661  0.76299910    -0.35800
O520        O  0.58285287  0.81679342  0.82819976    -0.40100
C521        C  0.32415639  0.14118564  0.80825425    -0.13800
C522        C  0.32699041  0.14275531  0.85057816     0.16600
C523        C  0.30607395  0.17096758  0.87210037     0.02900
C524        C  0.28224483  0.19572426  0.85097948    -0.12300
C525        C  0.27925874  0.19441811  0.80825866    -0.03400
C526        C  0.30134597  0.16655472  0.78712617     0.02100
C527        C  0.35312547  0.11549448  0.87092397     0.09000
N528        N  0.30946328  0.17579772  0.91520112     0.65300
H529        H  0.26731632  0.21672512  0.86886749     0.18200
N530        N  0.30070963  0.16306619  0.74392309     0.75800
H531        H  0.34016485  0.11999982  0.79117371     0.09700
C532        C  0.34116654  0.09179098  0.90293471     0.03400
C533        C  0.36826613  0.06893139  0.92219658    -0.05300
C534        C  0.40691373  0.06772877  0.90955655    -0.23700
C535        C  0.41809637  0.09014734  0.87611299     0.12700
C536        C  0.39145010  0.11384270  0.85794511    -0.12800
N537        N  0.30181669  0.09021952  0.91603480     0.64400
H538        H  0.35894138  0.05174496  0.94727144     0.12200
N539        N  0.45644221  0.08984730  0.86019186     0.61000
H540        H  0.40094494  0.13143035  0.83323628     0.08400
O541        O  0.28671778  0.13389873  0.72793386    -0.40500
O542        O  0.32178717  0.18399194  0.72266936    -0.39600
O543        O  0.34169151  0.17383106  0.93146448    -0.39600
O544        O  0.28086086  0.18579275  0.93660009    -0.37300
O545        O  0.47011454  0.05997264  0.84471908    -0.38200
O546        O  0.47327707  0.12055144  0.85372998    -0.34400
O547        O  0.27545542  0.09196286  0.89062342    -0.35800
O548        O  0.29331950  0.08356627  0.95254293    -0.40100
C549        C  0.63684478  0.90370035  0.10631558    -0.13800
C550        C  0.63044196  0.86501072  0.10841596     0.16600
C551        C  0.60185512  0.84853591  0.08429997     0.02900
C552        C  0.57980227  0.87143931  0.05925310    -0.12300
C553        C  0.58520360  0.91055553  0.05845552    -0.03400
C554        C  0.61523246  0.92650184  0.08119706     0.02100
C555        C  0.65268655  0.84317477  0.13788991     0.09000
N556        N  0.59373252  0.80909667  0.08624636     0.65300
H557        H  0.55718029  0.85885655  0.04177040     0.18200
N558        N  0.62528854  0.96545067  0.07795390     0.75800
H559        H  0.65932583  0.91620608  0.12408821     0.09700
C560        C  0.68125222  0.81695937  0.12595640     0.03400
C561        C  0.70011383  0.79620655  0.15563007    -0.05300
C562        C  0.69082380  0.80109625  0.19692794    -0.23700
C563        C  0.66259698  0.82788267  0.20861244     0.12700
C564        C  0.64435415  0.84880870  0.17912694    -0.12800
N565        N  0.69146734  0.81132700  0.08407947     0.64400
H566        H  0.72163971  0.77574115  0.14641031     0.12200
N567        N  0.65188162  0.83430060  0.25023812     0.61000
H568        H  0.62256554  0.86897692  0.18846591     0.08400
O569        O  0.63174412  0.97930578  0.04354915    -0.40500
O570        O  0.63391515  0.98417356  0.10921013    -0.39600
O571        O  0.58914757  0.79355237  0.12008211    -0.39600
O572        O  0.58719900  0.79057130  0.05424946    -0.37300
O573        O  0.65588656  0.86673243  0.26548809    -0.38200
O574        O  0.62902934  0.81193118  0.26728251    -0.34400
O575        O  0.70029439  0.83902017  0.06242475    -0.35800
O576        O  0.69490025  0.77846662  0.06954522    -0.40100
C577        C  0.41080361  0.84905863  0.87319402    -0.13800
C578        C  0.39092383  0.87042456  0.84523962     0.16600
C579        C  0.39505836  0.90985506  0.84536083     0.02900
C580        C  0.41766387  0.92717279  0.87473059    -0.12300
C581        C  0.43656871  0.90591054  0.90372290    -0.03400
C582        C  0.43313150  0.86628981  0.90272465     0.02100
C583        C  0.36113729  0.85152741  0.82134998     0.09000
N584        N  0.37632495  0.93251097  0.81607536     0.65300
H585        H  0.42061812  0.95747452  0.87473396     0.18200
N586        N  0.44942134  0.84330649  0.93322844     0.75800
H587        H  0.40673318  0.81889001  0.87392001     0.09700
C588        C  0.36939240  0.82016067  0.79595852     0.03400
C589        C  0.33922159  0.79989635  0.77893969    -0.05300
C590        C  0.30123260  0.81110176  0.78582414    -0.23700
C591        C  0.29313391  0.84260251  0.81101983     0.12700
C592        C  0.32311568  0.86244877  0.82842515    -0.12800
N593        N  0.40807230  0.80953684  0.78609902     0.64400
H594        H  0.34550632  0.77644423  0.75856002     0.12200
N595        N  0.25464706  0.85411805  0.82013969     0.61000
H596        H  0.31662415  0.88580054  0.84887925     0.08400
O597        O  0.43965701  0.84832539  0.96990970    -0.40500
O598        O  0.46811197  0.81420664  0.92303779    -0.39600
O599        O  0.36250838  0.96412250  0.82627406    -0.39600
O600        O  0.37571910  0.92213215  0.77937635    -0.37300
O601        O  0.23076011  0.83078808  0.83375457    -0.38200
O602        O  0.24528670  0.88826140  0.81775193    -0.34400
O603        O  0.41693759  0.77530868  0.78167562    -0.35800
O604        O  0.43261746  0.83434101  0.77789227    -0.40100
C605        C  0.88212260  0.16398981  0.56588439    -0.13800
C606        C  0.88413501  0.15924405  0.60776935     0.16600
C607        C  0.90862903  0.13180431  0.62343859     0.02900
C608        C  0.92959348  0.10863040  0.59667711    -0.12300
C609        C  0.92690240  0.11254474  0.55463018    -0.03400
C610        C  0.90303354  0.14070554  0.53912812     0.02100
C611        C  0.85880074  0.18149811  0.63486884     0.09000
N612        N  0.91239487  0.12715404  0.66630113     0.65300
H613        H  0.94813207  0.08732791  0.60880715     0.18200
N614        N  0.89681069  0.14367655  0.49663204     0.75800
H615        H  0.86273405  0.18462683  0.55391720     0.09700
C616        C  0.86419843  0.22031990  0.64003332     0.03400
C617        C  0.84330100  0.23978826  0.66998436    -0.05300
C618        C  0.81665192  0.22107016  0.69469284    -0.23700
C619        C  0.80906195  0.18271684  0.68722438     0.12700
C620        C  0.83039385  0.16318550  0.65752249    -0.12800
N621        N  0.89222610  0.23982634  0.61651331     0.64400
H622        H  0.84861413  0.26950527  0.67468112     0.12200
N623        N  0.78186664  0.16258389  0.71122980     0.61000
H624        H  0.82581029  0.13330295  0.65312413     0.08400
O625        O  0.87732248  0.11890139  0.47886062    -0.40500
O626        O  0.90350227  0.17430548  0.47915840    -0.39600
O627        O  0.91458743  0.09465002  0.68085056    -0.39600
O628        O  0.91666656  0.15541888  0.68931048    -0.37300
O629        O  0.75100782  0.15203723  0.69567028    -0.38200
O630        O  0.79221261  0.14814573  0.74386177    -0.34400
O631        O  0.88207921  0.26015123  0.58765974    -0.35800
O632        O  0.92705899  0.23744047  0.62509825    -0.40100
C633        C  0.62190963  0.13154573  0.86529394    -0.13800
C634        C  0.65644567  0.11539661  0.85198469     0.16600
C635        C  0.66657065  0.07929411  0.86585520     0.02900
C636        C  0.64225182  0.06090416  0.89359452    -0.12300
C637        C  0.60763383  0.07731809  0.90662749    -0.03400
C638        C  0.59739821  0.11308706  0.89213807     0.02100
C639        C  0.68331866  0.13963642  0.82879848     0.09000
N640        N  0.70081348  0.06078567  0.85149986     0.65300
H641        H  0.64972936  0.03316626  0.90400880     0.18200
N642        N  0.56339488  0.13222767  0.90608776     0.75800
H643        H  0.61473978  0.15980023  0.85626540     0.09700
C644        C  0.67141580  0.16074624  0.79527437     0.03400
C645        C  0.69476190  0.18982674  0.78062358    -0.05300
C646        C  0.73026878  0.19761405  0.79778790    -0.23700
C647        C  0.74311340  0.17444538  0.82931895     0.12700
C648        C  0.71930454  0.14651462  0.84490540    -0.12800
N649        N  0.63550455  0.15342627  0.77641362     0.64400
H650        H  0.68469267  0.20690930  0.75616843     0.12200
N651        N  0.78060807  0.17802912  0.84527144     0.61000
H652        H  0.72874815  0.13059696  0.87057296     0.08400
O653        O  0.54494818  0.15218947  0.88197048    -0.40500
O654        O  0.55639715  0.13564111  0.94353074    -0.39600
O655        O  0.71961790  0.04040123  0.87490720    -0.39600
O656        O  0.71066945  0.06224576  0.81459394    -0.37300
O657        O  0.80910739  0.16957077  0.82307053    -0.38200
O658        O  0.78481105  0.18172927  0.88298634    -0.34400
O659        O  0.61611079  0.18010586  0.76262823    -0.35800
O660        O  0.62402335  0.12010280  0.77145417    -0.40100
C661        C  0.12778636  0.41753814  0.13928772    -0.13800
C662        C  0.12876405  0.37951113  0.12734568     0.16600
C663        C  0.10440632  0.36709251  0.09614234     0.02900
C664        C  0.08157240  0.39343925  0.07634480    -0.12300
C665        C  0.08133026  0.43176994  0.08760650    -0.03400
C666        C  0.10436930  0.44349014  0.12008868     0.02100
C667        C  0.15616352  0.35393509  0.14750806     0.09000
N668        N  0.10227305  0.32807449  0.08434458     0.65300
H669        H  0.06364990  0.38376335  0.05197869     0.18200
N670        N  0.10514981  0.48182669  0.13347542     0.75800
H671        H  0.14605923  0.42739958  0.16330216     0.09700
C672        C  0.18409934  0.33269432  0.12566182     0.03400
C673        C  0.20846678  0.30850282  0.14655223    -0.05300
C674        C  0.20680546  0.30551605  0.18916985    -0.23700
C675        C  0.17932801  0.32798227  0.21061815     0.12700
C676        C  0.15441299  0.35128604  0.18976327    -0.12800
N677        N  0.18891361  0.33597249  0.08249645     0.64400
H678        H  0.22945515  0.29326614  0.12867742     0.12200
N679        N  0.17609966  0.32753025  0.25386700     0.61000
H680        H  0.13335990  0.36761097  0.20691743     0.08400
O681        O  0.13075812  0.50351725  0.12018595    -0.40500
O682        O  0.08356316  0.49258546  0.16240434    -0.39600
O683        O  0.10350352  0.30274775  0.11062839    -0.39600
O684        O  0.09570286  0.31890487  0.04807188    -0.37300
O685        O  0.19495810  0.35086870  0.27445652    -0.38200
O686        O  0.14797400  0.31128720  0.27031685    -0.34400
O687        O  0.18724367  0.36771357  0.06607989    -0.35800
O688        O  0.19857017  0.30767355  0.06113766    -0.40100
C689        C  0.10519928  0.65269602  0.14348142    -0.13800
C690        C  0.12869957  0.67825306  0.12318857     0.16600
C691        C  0.12515991  0.68279119  0.08122949     0.02900
C692        C  0.09930305  0.66044449  0.05983104    -0.12300
C693        C  0.07745367  0.63296494  0.07973376    -0.03400
C694        C  0.07955505  0.63015153  0.12224043     0.02100
C695        C  0.16066611  0.69488865  0.14543115     0.09000
N696        N  0.14993975  0.70757063  0.05959651     0.65300
H697        H  0.09854156  0.66259974  0.02716435     0.18200
N698        N  0.05625898  0.60411501  0.14407622     0.75800
H699        H  0.10788659  0.64926350  0.17585341     0.09700
C700        C  0.15732956  0.72935545  0.16645560     0.03400
C701        C  0.18692111  0.74136034  0.19147018    -0.05300
C702        C  0.21965070  0.71904247  0.19673168    -0.23700
C703        C  0.22291503  0.68469941  0.17465945     0.12700
C704        C  0.19354200  0.67313689  0.14939480    -0.12800
N705        N  0.12339513  0.75151303  0.16415156     0.64400
H706        H  0.18355120  0.76781020  0.20764194     0.12200
N707        N  0.25596037  0.66133256  0.17668032     0.61000
H708        H  0.19605580  0.64644024  0.13329229     0.08400
O709        O  0.02043848  0.60602615  0.14179115    -0.40500
O710        O  0.07101979  0.58230599  0.16918774    -0.39600
O711        O  0.18042195  0.69507128  0.04346238    -0.39600
O712        O  0.13900352  0.74046031  0.05201434    -0.37300
O713        O  0.25264798  0.62880777  0.19101880    -0.38200
O714        O  0.28442780  0.66852140  0.15423146    -0.34400
O715        O  0.10215224  0.75609436  0.19511901    -0.35800
O716        O  0.11688973  0.76985441  0.13264304    -0.40100
C717        C  0.85770835  0.71326376  0.17915137    -0.13800
C718        C  0.85005938  0.68071219  0.15620759     0.16600
C719        C  0.81265890  0.66597230  0.15692918     0.02900
C720        C  0.78431934  0.68292088  0.18181943    -0.12300
C721        C  0.79204651  0.71492088  0.20572726    -0.03400
C722        C  0.82923368  0.73031208  0.20391769     0.02100
C723        C  0.88183008  0.66003005  0.13478006     0.09000
N724        N  0.80302195  0.63397469  0.13222569     0.65300
H725        H  0.75578722  0.67126203  0.18205247     0.18200
N726        N  0.83966219  0.76084046  0.22998081     0.75800
H727        H  0.88646326  0.72439235  0.17941918     0.09700
C728        C  0.90237928  0.67530161  0.10182099     0.03400
C729        C  0.92980020  0.65313721  0.08075820    -0.05300
C730        C  0.93716294  0.61560223  0.09148521    -0.23700
C731        C  0.91862094  0.60156348  0.12682024     0.12700
C732        C  0.89104718  0.62376330  0.14747161    -0.12800
N733        N  0.89417225  0.71232575  0.08780676     0.64400
H734        H  0.94375752  0.66477688  0.05424181     0.12200
N735        N  0.92648051  0.56475485  0.14189418     0.61000
H736        H  0.87628539  0.61245505  0.17370510     0.08400
O737        O  0.84472121  0.75473578  0.26700188    -0.40500
O738        O  0.85179860  0.79102178  0.21492316    -0.39600
O739        O  0.78176224  0.60853448  0.14627941    -0.39600
O740        O  0.81357276  0.63227892  0.09547559    -0.37300
O741        O  0.96024165  0.55559458  0.15004804    -0.38200
O742        O  0.89938282  0.54443806  0.15444091    -0.34400
O743        O  0.92109732  0.73456154  0.07942967    -0.35800
O744        O  0.86033982  0.72160727  0.08005074    -0.40100
C745        C  0.11721899  0.63770531  0.86969776    -0.13800
C746        C  0.15650944  0.63073347  0.86985128     0.16600
C747        C  0.17142892  0.60564474  0.89823398     0.02900
C748        C  0.14625421  0.58742486  0.92513820    -0.12300
C749        C  0.10663990  0.59384658  0.92424280    -0.03400
C750        C  0.09218061  0.62022022  0.89669226     0.02100
C751        C  0.18059662  0.65322697  0.84208355     0.09000
N752        N  0.21164267  0.59812670  0.89987376     0.65300
H753        H  0.15762902  0.56764941  0.94643350     0.18200
N754        N  0.05285126  0.63181164  0.89730484     0.75800
H755        H  0.10604765  0.65850693  0.84939437     0.09700
C756        C  0.17160037  0.65510867  0.80066030     0.03400
C757        C  0.18622312  0.68452453  0.77760724    -0.05300
C758        C  0.21134950  0.71090615  0.79421875    -0.23700
C759        C  0.22284333  0.70715919  0.83457764     0.12700
C760        C  0.20690675  0.67873208  0.85839271    -0.12800
N761        N  0.14681682  0.62797651  0.78208729     0.64400
H762        H  0.17848246  0.68648742  0.74610355     0.12200
N763        N  0.24782629  0.73387698  0.85284718     0.61000
H764        H  0.21341321  0.67792311  0.89030273     0.08400
O765        O  0.03693942  0.63961185  0.86449916    -0.40500
O766        O  0.03700775  0.64224113  0.93025075    -0.39600
O767        O  0.22732276  0.59385880  0.93358273    -0.39600
O768        O  0.23118446  0.59341138  0.86768402    -0.37300
O769        O  0.23395903  0.75923488  0.87585179    -0.38200
O770        O  0.28308409  0.72683723  0.85394473    -0.34400
O771        O  0.12470737  0.63764819  0.75436081    -0.35800
O772        O  0.14869932  0.59377708  0.79146592    -0.40100
C773        C  0.88631836  0.61095666  0.86828685    -0.13800
C774        C  0.85429779  0.62791658  0.88683684     0.16600
C775        C  0.84740440  0.62235538  0.92847675     0.02900
C776        C  0.87341070  0.60129578  0.95103468    -0.12300
C777        C  0.90646544  0.58520544  0.93283372    -0.03400
C778        C  0.91238677  0.58988857  0.89047558     0.02100
C779        C  0.83099703  0.65410904  0.86250038     0.09000
N780        N  0.81465043  0.63871282  0.94839265     0.65300
H781        H  0.86807873  0.59824272  0.98323389     0.18200
N782        N  0.94460070  0.57383893  0.86910194     0.75800
H783        H  0.89184441  0.61520629  0.83628150     0.09700
C784        C  0.84321029  0.69133845  0.85629602     0.03400
C785        C  0.82576375  0.71327513  0.82687118    -0.05300
C786        C  0.79564509  0.69933010  0.80340331    -0.23700
C787        C  0.78213446  0.66259317  0.81122725     0.12700
C788        C  0.80018748  0.64032750  0.84022332    -0.12800
N789        N  0.87436681  0.70673526  0.87855642     0.64400
H790        H  0.83625836  0.74148400  0.82195055     0.12200
N791        N  0.75220089  0.64621229  0.78813247     0.61000
H792        H  0.79099228  0.61156212  0.84429754     0.08400
O793        O  0.97719068  0.58793289  0.87396992    -0.40500
O794        O  0.93910931  0.55367648  0.83800499    -0.39600
O795        O  0.78163631  0.62804762  0.93895106    -0.39600
O796        O  0.81870262  0.66114473  0.97794183    -0.37300
O797        O  0.71814864  0.65012715  0.80059390    -0.38200
O798        O  0.76014298  0.61971230  0.76358373    -0.34400
O799        O  0.90143532  0.72297949  0.86018933    -0.35800
O800        O  0.87314878  0.70726554  0.91676752    -0.40100
C801        C  0.14377450  0.40751146  0.90774511    -0.13800
C802        C  0.12487709  0.39446359  0.87326524     0.16600
C803        C  0.08891135  0.41006177  0.86425253     0.02900
C804        C  0.07260750  0.43772551  0.89040792    -0.12300
C805        C  0.09074592  0.44963380  0.92614122    -0.03400
C806        C  0.12721214  0.43447917  0.93414279     0.02100
C807        C  0.14254034  0.36290967  0.84904358     0.09000
N808        N  0.06770135  0.39691327  0.83005429     0.65300
H809        H  0.04458092  0.44862590  0.88371918     0.18200
N810        N  0.14697783  0.44421364  0.97023715     0.75800
H811        H  0.17124332  0.39560095  0.91504148     0.09700
C812        C  0.15783432  0.36748603  0.80957297     0.03400
C813        C  0.17550749  0.33678927  0.78908413    -0.05300
C814        C  0.17864340  0.30136629  0.80726621    -0.23700
C815        C  0.16098605  0.29649130  0.84602065     0.12700
C816        C  0.14396747  0.32734618  0.86643580    -0.12800
N817        N  0.15726388  0.40345476  0.79070198     0.64400
H818        H  0.18893898  0.34144382  0.75979917     0.12200
N819        N  0.15932057  0.26046023  0.86500627     0.61000
H820        H  0.13110611  0.32346038  0.89617886     0.08400
O821        O  0.17687447  0.46381587  0.96799040    -0.40500
O822        O  0.13874815  0.42769498  0.00277908    -0.39600
O823        O  0.06517653  0.36217332  0.82231804    -0.39600
O824        O  0.04787507  0.41962352  0.81029918    -0.37300
O825        O  0.16236318  0.25805462  0.90289796    -0.38200
O826        O  0.15108844  0.23143144  0.84466381    -0.34400
O827        O  0.17046937  0.43193865  0.80879113    -0.35800
O828        O  0.14654080  0.40625247  0.75462191    -0.40100
C829        C  0.91199753  0.39337347  0.13730988    -0.13800
C830        C  0.87426615  0.40223847  0.14849953     0.16600
C831        C  0.85878650  0.43719466  0.13766254     0.02900
C832        C  0.88011827  0.46091713  0.11244827    -0.12300
C833        C  0.91704855  0.45099619  0.09859531    -0.03400
C834        C  0.93350443  0.41732738  0.11252788     0.02100
C835        C  0.84947733  0.37235380  0.16513522     0.09000
N836        N  0.82112848  0.44832740  0.15110588     0.65300
H837        H  0.86741121  0.48707317  0.10308211     0.18200
N838        N  0.97078167  0.40547177  0.09942784     0.75800
H839        H  0.92391113  0.36648154  0.14552434     0.09700
C840        C  0.82063889  0.35610100  0.14145810     0.03400
C841        C  0.79624924  0.32922325  0.15846773    -0.05300
C842        C  0.80035274  0.31697245  0.19857637    -0.23700
C843        C  0.82923640  0.33418039  0.22225254     0.12700
C844        C  0.85364082  0.36107686  0.20513922    -0.12800
N845        N  0.81606467  0.36620307  0.09984093     0.64400
H846        H  0.77422154  0.31831879  0.13941919     0.12200
N847        N  0.83445001  0.32467696  0.26376283     0.61000
H848        H  0.87548555  0.37390565  0.22352891     0.08400
O849        O  0.97511505  0.38887178  0.06562304    -0.40500
O850        O  0.99735833  0.40461131  0.12461378    -0.39600
O851        O  0.81008783  0.44230919  0.18702800    -0.39600
O852        O  0.79996890  0.46692834  0.12824811    -0.37300
O853        O  0.86549558  0.30994546  0.27408264    -0.38200
O854        O  0.81259901  0.33876485  0.29076461    -0.34400
O855        O  0.84472900  0.36799702  0.07620537    -0.35800
O856        O  0.78309225  0.36957349  0.08559362    -0.40100
C857        C  0.89107945  0.41532522  0.88661852    -0.13800
C858        C  0.88277477  0.37858847  0.89869324     0.16600
C859        C  0.89834120  0.36464824  0.93453908     0.02900
C860        C  0.92286754  0.38740443  0.95684227    -0.12300
C861        C  0.93111410  0.42422546  0.94491784    -0.03400
C862        C  0.91501498  0.43839843  0.90946569     0.02100
C863        C  0.85992807  0.35431308  0.87204056     0.09000
N864        N  0.88867516  0.32800567  0.94918533     0.65300
H865        H  0.93443686  0.37672768  0.98461735     0.18200
N866        N  0.92383143  0.47531665  0.89535401     0.75800
H867        H  0.87973081  0.42570110  0.85861261     0.09700
C868        C  0.82294052  0.36452617  0.86068268     0.03400
C869        C  0.80288767  0.34090736  0.83456716    -0.05300
C870        C  0.81913739  0.30747040  0.81828609    -0.23700
C871        C  0.85564130  0.29642421  0.83206296     0.12700
C872        C  0.87586862  0.32053376  0.85757490    -0.12800
N873        N  0.80506832  0.39838788  0.87586590     0.64400
H874        H  0.77378900  0.34859032  0.82826625     0.12200
N875        N  0.87230815  0.26058790  0.82192281     0.61000
H876        H  0.90413409  0.31243628  0.86700987     0.08400
O877        O  0.89771553  0.49574219  0.88171330    -0.40500
O878        O  0.95814860  0.48565903  0.89169597    -0.39600
O879        O  0.91389614  0.30761720  0.96460132    -0.39600
O880        O  0.85435290  0.31728702  0.95006525    -0.37300
O881        O  0.90737435  0.25823125  0.81271920    -0.38200
O882        O  0.85400012  0.23094113  0.82916492    -0.34400
O883        O  0.78645902  0.41889081  0.85240496    -0.35800
O884        O  0.80575064  0.40670115  0.91313114    -0.40100
C885        C  0.60705060  0.59090980  0.65171417    -0.13800
C886        C  0.63599421  0.61165971  0.63200478     0.16600
C887        C  0.64223070  0.60526082  0.58992102     0.02900
C888        C  0.62080761  0.57786182  0.56939731    -0.12300
C889        C  0.59108269  0.55798386  0.58861319    -0.03400
C890        C  0.58436486  0.56459321  0.63053292     0.02100
C891        C  0.66130309  0.63786692  0.65575413     0.09000
N892        N  0.66881483  0.62762170  0.56699393     0.65300
H893        H  0.62590059  0.57388340  0.53716096     0.18200
N894        N  0.55567903  0.54400687  0.65234516     0.75800
H895        H  0.60250968  0.59466028  0.68405002     0.09700
C896        C  0.64694700  0.66595656  0.68306985     0.03400
C897        C  0.67257570  0.68995755  0.70358055    -0.05300
C898        C  0.71214851  0.68798199  0.69613389    -0.23700
C899        C  0.72638418  0.65946476  0.66957284     0.12700
C900        C  0.70111116  0.63459931  0.65052367    -0.12800
N901        N  0.60664986  0.67216995  0.68847672     0.64400
H902        H  0.66132566  0.71203590  0.72336629     0.12200
N903        N  0.76649996  0.65542814  0.66125842     0.61000
H904        H  0.71281492  0.61262662  0.63087244     0.08400
O905        O  0.53485441  0.56045849  0.67873489    -0.40500
O906        O  0.55382128  0.50872003  0.64843883    -0.39600
O907        O  0.68785170  0.61301751  0.53795318    -0.39600
O908        O  0.67002711  0.66277569  0.57252264    -0.37300
O909        O  0.77878391  0.65333156  0.62511887    -0.38200
O910        O  0.78946538  0.65154036  0.68984740    -0.34400
O911        O  0.59309831  0.68146007  0.72288417    -0.35800
O912        O  0.58529707  0.67309531  0.65816413    -0.40100
C913        C  0.31625234  0.35347903  0.70182451    -0.13800
C914        C  0.31405977  0.35190409  0.65942723     0.16600
C915        C  0.28935586  0.32505450  0.64163420     0.02900
C916        C  0.26747187  0.30099168  0.66670639    -0.12300
C917        C  0.27083216  0.30182976  0.70905544    -0.03400
C918        C  0.29515948  0.32900928  0.72671289     0.02100
C919        C  0.34045208  0.37650136  0.63505614     0.09000
N920        N  0.28815599  0.31992360  0.59844324     0.65300
H921        H  0.24979099  0.27966434  0.65287753     0.18200
N922        N  0.29907398  0.33199590  0.76987303     0.75800
H923        H  0.33499065  0.37390053  0.71574132     0.09700
C924        C  0.32798444  0.40376636  0.60731026     0.03400
C925        C  0.35523064  0.42455325  0.58441690    -0.05300
C926        C  0.39484479  0.41956064  0.58935785    -0.23700
C927        C  0.40643667  0.39211343  0.61709783     0.12700
C928        C  0.37967724  0.37148596  0.63954249    -0.12800
N929        N  0.28806783  0.41139613  0.60289981     0.64400
H930        H  0.34537541  0.44527425  0.56332443     0.12200
N931        N  0.44549230  0.38224598  0.62055973     0.61000
H932        H  0.38981140  0.35020503  0.65989800     0.08400
O933        O  0.33101334  0.33991016  0.78479351    -0.40500
O934        O  0.27001817  0.33065645  0.79296467    -0.39600
O935        O  0.31866140  0.31949842  0.57746665    -0.39600
O936        O  0.25727805  0.31092054  0.58184863    -0.37300
O937        O  0.45985135  0.35926307  0.59511925    -0.38200
O938        O  0.46173522  0.38808983  0.65377626    -0.34400
O939        O  0.26632543  0.41406433  0.63373785    -0.35800
O940        O  0.27502185  0.41865421  0.56853922    -0.40100
C941        C  0.63328429  0.29331451  0.32896464    -0.13800
C942        C  0.64558419  0.32003962  0.35737427     0.16600
C943        C  0.68477942  0.32852740  0.35968334     0.02900
C944        C  0.71048142  0.31162855  0.33202520    -0.12300
C945        C  0.69797892  0.28663800  0.30175189    -0.03400
C946        C  0.65904690  0.27637114  0.30130960     0.02100
C947        C  0.61706175  0.33974525  0.38354662     0.09000
N948        N  0.69864589  0.35574266  0.38830156     0.65300
H949        H  0.74030955  0.31950090  0.33293684     0.18200
N950        N  0.64447174  0.25099307  0.27148833     0.75800
H951        H  0.60324485  0.28632092  0.32757579     0.09700
C952        C  0.58952181  0.36385173  0.36711210     0.03400
C953        C  0.56487631  0.38420867  0.39322227    -0.05300
C954        C  0.56734782  0.38122817  0.43540512    -0.23700
C955        C  0.59369065  0.35557686  0.45159627     0.12700
C956        C  0.61832581  0.33529985  0.42552373    -0.12800
N957        N  0.58772367  0.36966546  0.32428810     0.64400
H958        H  0.54496909  0.40396747  0.38055389     0.12200
N959        N  0.59753028  0.35144511  0.49436018     0.61000
H960        H  0.63918420  0.31648465  0.43814388     0.08400
O961        O  0.62175762  0.26340336  0.24569084    -0.40500
O962        O  0.64453721  0.21625175  0.27853156    -0.39600
O963        O  0.72845708  0.34902091  0.40779169    -0.39600
O964        O  0.68363173  0.38797528  0.39101344    -0.37300
O965        O  0.62948549  0.35709701  0.51031502    -0.38200
O966        O  0.57179327  0.33472641  0.51427030    -0.34400
O967        O  0.55579719  0.37091171  0.30732277    -0.35800
O968        O  0.61757725  0.37734854  0.30409516    -0.40100
C969        C  0.40153063  0.62665137  0.40171920    -0.13800
C970        C  0.36851895  0.61433085  0.38255495     0.16600
C971        C  0.35535573  0.57757077  0.38889742     0.02900
C972        C  0.37440864  0.55424067  0.41576989    -0.12300
C973        C  0.40697813  0.56687207  0.43621517    -0.03400
C974        C  0.42088157  0.60341007  0.42833287     0.02100
C975        C  0.34739977  0.64111910  0.35758461     0.09000
N976        N  0.32246582  0.56381491  0.36857741     0.65300
H977        H  0.36355220  0.52617084  0.42075966     0.18200
N978        N  0.45348585  0.61819568  0.44836293     0.75800
H979        H  0.41172661  0.65498821  0.39683681     0.09700
C980        C  0.32254821  0.66769536  0.37571005     0.03400
C981        C  0.30563574  0.69521945  0.35197566    -0.05300
C982        C  0.31276348  0.69701965  0.30970369    -0.23700
C983        C  0.33830178  0.67003715  0.29206925     0.12700
C984        C  0.35522752  0.64263630  0.31602196    -0.12800
N985        N  0.31430356  0.66737286  0.41842616     0.64400
H986        H  0.28664869  0.71397796  0.36749220     0.12200
N987        N  0.34815255  0.67028884  0.24989966     0.61000
H988        H  0.37505769  0.62271878  0.30214454     0.08400
O989        O  0.48134554  0.63009126  0.42750887    -0.40500
O990        O  0.45085430  0.62710046  0.48542000    -0.39600
O991        O  0.32648510  0.54286267  0.33763423    -0.39600
O992        O  0.28962577  0.56925499  0.38389293    -0.37300
O993        O  0.32921678  0.65029590  0.22573831    -0.38200
O994        O  0.38101105  0.68112915  0.23910720    -0.34400
O995        O  0.31631467  0.69735222  0.43915663    -0.35800
O996        O  0.30148831  0.63803567  0.43475925    -0.40100
C997        C  0.59307870  0.64388193  0.41590513    -0.13800
C998        C  0.60916094  0.63035488  0.37931418     0.16600
C999        C  0.60328897  0.59250650  0.36805835     0.02900
C1000       C  0.58264616  0.56868701  0.39409552    -0.12300
C1001       C  0.56706038  0.58171854  0.43146249    -0.03400
C1002       C  0.57252438  0.62019486  0.44218526     0.02100
C1003       C  0.63363496  0.65571614  0.35431028     0.09000
N1004       N  0.61756790  0.57806529  0.32993582     0.65300
H1005       H  0.57868340  0.53967286  0.38477225     0.18200
N1006       N  0.55856868  0.63577264  0.47991589     0.75800
H1007       H  0.59767094  0.67293164  0.42481037     0.09700
C1008       C  0.61790955  0.68580412  0.33308824     0.03400
C1009       C  0.64204743  0.71052757  0.31194472    -0.05300
C1010       C  0.68214417  0.70531128  0.30947315    -0.23700
C1011       C  0.69776090  0.67607108  0.33302899     0.12700
C1012       C  0.67342943  0.65138819  0.35426222    -0.12800
N1013       N  0.57733646  0.69110357  0.33187937     0.64400
H1014       H  0.62856179  0.73394381  0.29766431     0.12200
N1015       N  0.73819011  0.67108930  0.33629389     0.61000
H1016       H  0.68578229  0.62914215  0.37184790     0.08400
O1017       O  0.57339165  0.62563782  0.51248682    -0.40500
O1018       O  0.53887376  0.66550247  0.48001632    -0.39600
O1019       O  0.63503400  0.54702836  0.32815040    -0.39600
O1020       O  0.60996117  0.59469235  0.29757841    -0.37300
O1021       O  0.75270767  0.63891150  0.33065373    -0.38200
O1022       O  0.75810519  0.69671648  0.35203036    -0.34400
O1023       O  0.56318708  0.72359458  0.33611816    -0.35800
O1024       O  0.55595005  0.66403337  0.32226416    -0.40100
C1025       C  0.61439025  0.37047522  0.64181046    -0.13800
C1026       C  0.65335224  0.37750141  0.63754488     0.16600
C1027       C  0.66623931  0.40292522  0.60783684     0.02900
C1028       C  0.63932001  0.42149920  0.58399035    -0.12300
C1029       C  0.59988697  0.41489128  0.58898752    -0.03400
C1030       C  0.58778204  0.38807410  0.61768099     0.02100
C1031       C  0.67906289  0.35548009  0.66333442     0.09000
N1032       N  0.70614244  0.41042800  0.60179714     0.65300
H1033       H  0.64925268  0.44142972  0.56169968     0.18200
N1034       N  0.54930712  0.37502216  0.61989143     0.75800
H1035       H  0.60466259  0.34942463  0.66301429     0.09700
C1036       C  0.67346168  0.35552675  0.70583617     0.03400
C1037       C  0.69297596  0.32937483  0.72894941    -0.05300
C1038       C  0.71915726  0.30395825  0.71107609    -0.23700
C1039       C  0.72494544  0.30407209  0.66864763     0.12700
C1040       C  0.70472316  0.32967272  0.64520075    -0.12800
N1041       N  0.64872546  0.38249119  0.72597887     0.64400
H1042       H  0.68936339  0.33025244  0.76161977     0.12200
N1043       N  0.75206331  0.27948239  0.64900391     0.61000
H1044       H  0.70845976  0.32887305  0.61255567     0.08400
O1045       O  0.53483293  0.36690283  0.65392411    -0.40500
O1046       O  0.53465727  0.36153573  0.58830641    -0.39600
O1047       O  0.71987261  0.41367842  0.56641400    -0.39600
O1048       O  0.72732444  0.41613514  0.63173258    -0.37300
O1049       O  0.74412513  0.24512289  0.64465337    -0.38200
O1050       O  0.77897518  0.29321131  0.62808648    -0.34400
O1051       O  0.62992060  0.37350282  0.75733149    -0.35800
O1052       O  0.64801364  0.41617989  0.71457905    -0.40100
C1053       C  0.36200722  0.60101815  0.62338786    -0.13800
C1054       C  0.37694615  0.63454867  0.63925703     0.16600
C1055       C  0.41627065  0.64219099  0.63431896     0.02900
C1056       C  0.43891916  0.61771035  0.61035998    -0.12300
C1057       C  0.42351289  0.58521316  0.59229025    -0.03400
C1058       C  0.38487766  0.57631630  0.60012018     0.02100
C1059       C  0.35026965  0.66245645  0.65780811     0.09000
N1060       N  0.43336907  0.67471310  0.65292070     0.65300
H1061       H  0.46884384  0.62422860  0.60562368     0.18200
N1062       N  0.36766954  0.54382143  0.58238298     0.75800
H1063       H  0.33188743  0.59492050  0.62737147     0.09700
C1064       C  0.34492686  0.69838873  0.64097716     0.03400
C1065       C  0.31935962  0.72373144  0.66003984    -0.05300
C1066       C  0.29820435  0.71371958  0.69472484    -0.23700
C1067       C  0.30360979  0.67769923  0.71111950     0.12700
C1068       C  0.32956236  0.65262685  0.69266690    -0.12800
N1069       N  0.36426323  0.70919649  0.60416335     0.64400
H1070       H  0.31537792  0.75127035  0.64721792     0.12200
N1071       N  0.28094750  0.66476981  0.74443721     0.61000
H1072       H  0.33318581  0.62496240  0.70534437     0.08400
O1073       O  0.35419631  0.54558770  0.54732300    -0.40500
O1074       O  0.35977785  0.51601456  0.60421214    -0.39600
O1075       O  0.42256636  0.68574913  0.68780608    -0.39600
O1076       O  0.46160011  0.69052860  0.63612740    -0.37300
O1077       O  0.25118809  0.64622299  0.73708412    -0.38200
O1078       O  0.29603117  0.66176974  0.77861908    -0.34400
O1079       O  0.36768436  0.68623835  0.57479854    -0.35800
O1080       O  0.37426793  0.74290255  0.59926563    -0.40100
C1081       C  0.40677844  0.34115963  0.40156497    -0.13800
C1082       C  0.38270852  0.35913568  0.37443992     0.16600
C1083       C  0.38170795  0.39895225  0.37431784     0.02900
C1084       C  0.40506114  0.41954533  0.40083766    -0.12300
C1085       C  0.42872251  0.40158517  0.42859030    -0.03400
C1086       C  0.42973489  0.36182468  0.42825478     0.02100
C1087       C  0.35978328  0.33590258  0.34568829     0.09000
N1088       N  0.35618849  0.41890880  0.34866707     0.65300
H1089       H  0.40321439  0.44993876  0.40107821     0.18200
N1090       N  0.45464533  0.34188173  0.45411204     0.75800
H1091       H  0.40821713  0.31074280  0.40156866     0.09700
C1092       C  0.36401679  0.33946910  0.30320483     0.03400
C1093       C  0.33829346  0.32091151  0.27758053    -0.05300
C1094       C  0.30953488  0.29739755  0.29303044    -0.23700
C1095       C  0.30612098  0.29282227  0.33525969     0.12700
C1096       C  0.33144542  0.31177043  0.36110237    -0.12800
N1097       N  0.39441053  0.36137110  0.28568431     0.64400
H1098       H  0.34110617  0.32426577  0.24511121     0.12200
N1099       N  0.27531462  0.27155585  0.35246232     0.61000
H1100       H  0.32769456  0.30923669  0.39358111     0.08400
O1101       O  0.48914112  0.33712338  0.44363235    -0.40500
O1102       O  0.44101916  0.32412517  0.48380473    -0.39600
O1103       O  0.32217812  0.40801800  0.34476709    -0.39600
O1104       O  0.36627123  0.44972898  0.33340642    -0.37300
O1105       O  0.28153708  0.24879588  0.38050420    -0.38200
O1106       O  0.24132739  0.27913455  0.34352399    -0.34400
O1107       O  0.42721812  0.36098625  0.30080573    -0.35800
O1108       O  0.38968379  0.37802216  0.25268001    -0.40100
loop_ 
_geom_bond_atom_site_label_1 
_geom_bond_atom_site_label_2 
_geom_bond_distance 
_geom_bond_site_symmetry_2 
_ccdc_geom_bond_type 
O1            C9   1.280       .  A
O1          Co21   2.035       .  S
O2           C10   1.265       .  A
O2          Co22   2.018       .  S
O3           C11   1.266       .  A
O3          Co23   1.889       .  S
O4           C12   1.262       .  A
O4          Co24   1.967       .  S
O5           C11   1.298       .  A
O5          Co22   2.113       .  S
O6           C12   1.269       .  A
O6          Co21   2.015       .  S
O7           C10   1.264       .  A
O7          Co24   1.989       .  S
O8            C9   1.271       .  A
O8          Co23   1.978       .  S
C9         C1085   1.498       .  S
C10        C1001   1.505       .  S
C11         C973   1.486       .  S
C12         C954   1.478       .  S
O13          C26   1.267       .  A
O13         Co21   1.971       .  S
O14          C27   1.266       .  A
O14         Co22   1.871       .  S
O15          C28   1.267       .  A
O15         Co23   2.034       .  S
O16          C29   1.278       .  A
O16         Co24   2.029       .  S
O17          C29   1.272       .  A
O17         Co22   1.990       .  S
O18          C28   1.264       .  A
O18         Co21   1.990       .  S
O19          C26   1.276       .  A
O19         Co24   2.029       .  S
O20          C27   1.301       .  A
O20         Co23   2.115       .  S
Co21         O25   2.042       .  S
Co22         O25   1.999       .  S
Co23         O25   2.014       .  S
Co24         O25   2.043       .  S
C26        C1029   1.490       .  S
C27        C1057   1.481       .  S
C28         C926   1.513       .  S
C29         C889   1.502       .  S
O30          C38   1.268       .  A
O30         Co50   1.888       .  S
O31          C39   1.264       .  A
O31         Co51   1.965       .  S
O32          C40   1.260       .  A
O32         Co52   2.003       .  S
O33          C41   1.281       .  A
O33         Co53   2.038   1_654  S
O34          C40   1.258       .  A
O34         Co51   1.985       .  S
O35          C41   1.267       .  A
O35         Co50   1.971       .  S
O36          C39   1.274       .  A
O36         Co53   2.023   1_554  S
O37          C38   1.297       .  A
O37         Co52   2.104   1_655  S
C38         C833   1.487       .  S
C39         C693   1.479       .  S
C40         C665   1.495       .  S
C41         C730   1.502       .  S
O42          C55   1.267       .  A
O42         Co50   2.029   1_556  S
O43          C56   1.282       .  A
O43         Co51   2.044   1_556  S
O44          C57   1.261       .  A
O44         Co52   1.876   1_656  S
O45          C58   1.259       .  A
O45         Co53   1.961       .  S
O46          C58   1.270       .  A
O46         Co51   2.018   1_556  S
O47          C57   1.296       .  A
O47         Co50   2.102   1_556  S
O48          C55   1.256       .  A
O48         Co53   1.980   1_655  S
O49          C56   1.269       .  A
O49         Co52   1.977   1_556  S
Co50         O54   2.010   1_655  S
Co51         O54   2.040       .  S
Co52         O54   1.997       .  S
Co53         O54   2.024   1_556  S
C55         C777   1.501       .  S
C56         C805   1.503       .  S
C57         C861   1.466       .  S
C58         C749   1.479       .  S
C59          C60   1.534       .  S
C59          C65   1.537       .  S
C59          C63   1.530       .  S
C59         C870   1.530       .  S
C60          H67   1.085       .  S
C60          C61   1.360       .  D
C61          C62   1.543       .  S
C61        C1038   1.483       .  S
C62          C66   1.536       .  S
C62          C64   1.547       .  S
C62          H68   1.107       .  S
C63          H69   1.085       .  S
C63          C64   1.367       .  D
C64         C646   1.494       .  S
C65          H70   1.085       .  S
C65          C66   1.366       .  D
C66         C618   1.476       .  S
O71          C79   1.259       .  A
O71         Co91   1.954       .  S
O72          C80   1.266       .  A
O72         Co92   1.882       .  S
O73          C81   1.278       .  A
O73         Co93   2.034   1_566  S
O74          C82   1.268       .  A
O74         Co94   2.033   1_545  S
O75          C81   1.269       .  A
O75         Co92   1.982       .  S
O76          C82   1.257       .  A
O76         Co91   1.976       .  S
O77          C80   1.297       .  A
O77         Co94   2.097       .  S
O78          C79   1.275       .  A
O78         Co93   2.030   1_556  S
C79         C637   1.475       .  S
C80         C581   1.477       .  S
C81         C497   1.494       .  S
C82         C534   1.508       .  S
O83          C96   1.278       .  A
O83         Co91   2.025   1_554  S
O84          C97   1.264       .  A
O84         Co92   2.026   1_554  S
O85          C98   1.257       .  A
O85         Co93   1.957       .  S
O86          C99   1.265       .  A
O86         Co94   1.890   1_554  S
O87          C99   1.297       .  A
O87         Co92   2.105   1_554  S
O88          C98   1.271       .  A
O88         Co91   2.021   1_554  S
O89          C96   1.268       .  A
O89         Co94   1.978   1_544  S
O90          C97   1.255       .  A
O90         Co93   1.970   1_565  S
Co91         O95   2.037       .  S
Co92         O95   2.017   1_565  S
Co93         O95   2.036   1_554  S
Co94         O95   2.010   1_565  S
C96         C450   1.497       .  S
C97         C553   1.490       .  S
C98         C413   1.484       .  S
C99         C469   1.489       .  S
C100        C101   1.528       .  S
C100        C106   1.544       .  S
C100        C104   1.542       .  S
C100        C385   1.534       .  S
C101        H108   1.086       .  S
C101        C102   1.360       .  D
C102        C103   1.534       .  S
C102        C590   1.476       .  S
C103        C107   1.534       .  S
C103        C105   1.535       .  S
C103        H109   1.107       .  S
C104        H110   1.085       .  S
C104        C105   1.369       .  D
C105       C1066   1.487       .  S
C106        H111   1.082       .  S
C106        C107   1.368       .  D
C107        C758   1.478       .  S
O112        C120   1.271       .  A
O112       Co132   2.022       .  S
O113        C121   1.297       .  A
O113       Co133   2.113       .  S
O114        C122   1.264       .  A
O114       Co134   1.992   1_565  S
O115        C123   1.273       .  A
O115       Co135   1.984       .  S
O116        C122   1.267       .  A
O116       Co133   2.014   1_655  S
O117        C123   1.281       .  A
O117       Co132   2.041   1_455  S
O118        C121   1.265       .  A
O118       Co135   1.882   1_565  S
O119        C120   1.257       .  A
O119       Co134   1.950       .  S
C120        C609   1.472       .  S
C121        C394   1.479       .  S
C122        C282   1.499       .  S
C123        C217   1.506       .  S
O124        C137   1.259       .  A
O124       Co132   1.987   1_455  S
O125        C138   1.273       .  A
O125       Co133   1.996   1_655  S
O126        C139   1.279       .  A
O126       Co134   2.040       .  S
O127        C140   1.302       .  A
O127       Co135   2.117   1_565  S
O128        C140   1.268       .  A
O128       Co133   1.877       .  S
O129        C139   1.262       .  A
O129       Co132   1.953       .  S
O130        C137   1.262       .  A
O130       Co135   2.014       .  S
O131        C138   1.271       .  A
O131       Co134   2.003   1_565  S
Co132       O136   2.038       .  S
Co133       O136   1.997   1_465  S
Co134       O136   2.030       .  S
Co135       O136   1.996   1_455  S
C137        C254   1.496       .  S
C138        C338   1.497       .  S
C139        C357   1.485       .  S
C140        C310   1.481       .  S
C141        C142   1.543       .  S
C141        C147   1.540       .  S
C141        C145   1.542       .  S
C141       C1010   1.554       .  S
C142        H149   1.085       .  S
C142        C143   1.372       .  D
C143        C144   1.548       .  S
C143        C721   1.500       .  S
C144        C148   1.545       .  S
C144        C146   1.544       .  S
C144        H150   1.108       .  S
C145        H151   1.086       .  S
C145        C146   1.373       .  D
C146        C329   1.500       .  S
C147        H152   1.081       .  S
C147        C148   1.359       .  D
C148        C562   1.488       .  S
C153        C154   1.532       .  S
C153        C159   1.536       .  S
C153        C157   1.545       .  S
C153        C674   1.546       .  S
C154        H161   1.086       .  S
C154        C155   1.362       .  D
C155        C156   1.551       .  S
C155       C1094   1.491       .  S
C156        C160   1.550       .  S
C156        C158   1.553       .  S
C156        H162   1.108       .  S
C157        H163   1.080       .  S
C157        C158   1.373       .  D
C158        C441   1.504       .  S
C159        H164   1.086       .  S
C159        C160   1.367       .  D
C160        C245   1.503       .  S
C165        C166   1.539       .  S
C165        C171   1.534       .  S
C165        C169   1.549       .  S
C165        C842   1.539       .  S
C166        H173   1.086       .  S
C166        C167   1.364       .  D
C167        C168   1.536       .  S
C167        C366   1.482       .  S
C168        C172   1.537       .  S
C168        C170   1.536       .  S
C168        H174   1.107       .  S
C169        H175   1.081       .  S
C169        C170   1.364       .  D
C170        C422   1.476       .  S
C171        H176   1.086       .  S
C171        C172   1.367       .  D
C172        C945   1.486       .  S
C177        C178   1.541       .  S
C177        C183   1.539       .  S
C177        C181   1.548       .  S
C177        C982   1.544       .  S
C178        H185   1.085       .  S
C178        C179   1.369       .  D
C179        C180   1.539       .  S
C179        C478   1.488       .  S
C180        C184   1.541       .  S
C180        C182   1.534       .  S
C180        H186   1.110       .  S
C181        H187   1.072       .  S
C181        C182   1.360       .  D
C182        C301   1.476       .  S
C183        H188   1.084       .  S
C183        C184   1.370       .  D
C184        C702   1.494       .  S
C189        C190   1.538       .  S
C189        C195   1.538       .  S
C189        C193   1.547       .  S
C189        C525   1.559       .  S
C190        H197   1.086       .  S
C190        C191   1.369       .  D
C191        C192   1.551       .  S
C191        C917   1.503       .  S
C192        C196   1.551       .  S
C192        C194   1.554       .  S
C192        H198   1.110       .  S
C193        H199   1.078       .  S
C193        C194   1.374       .  D
C194        C814   1.510       .  S
C195        H200   1.086       .  S
C195        C196   1.366       .  D
C196        C226   1.501       .  S
C201        C202   1.549       .  S
C201        C207   1.530       .  S
C201        C205   1.540       .  S
C201        C273   1.552       .  S
C202        H209   1.081       .  S
C202        C203   1.374       .  D
C203        C204   1.550       .  S
C203        C786   1.505       .  S
C204        C208   1.547       .  S
C204        C206   1.550       .  S
C204        H210   1.106       .  S
C205        H211   1.085       .  S
C205        C206   1.371       .  D
C206        C898   1.501       .  S
C207        H212   1.087       .  S
C207        C208   1.361       .  D
C208        C506   1.491       .  S
C213        C214   1.405       .  A
C213        C218   1.410       .  A
C213        H223   1.084       .  S
C214        C219   1.507       .  S
C214        C215   1.419       .  A
C215        C216   1.410       .  A
C215        N220   1.437       .  S
C216        C217   1.409       .  A
C216        H221   1.084       .  S
C217        C218   1.420       .  A
C218        N222   1.433       .  S
C219        C224   1.422       .  A
C219        C228   1.405       .  A
N220        O235   1.263       .  A
N220        O236   1.263       .  A
N222        O233   1.261       .  A
N222        O234   1.262       .  A
C224        C225   1.415       .  A
C224        N229   1.436       .  S
C225        C226   1.404       .  A
C225        H230   1.082       .  S
C226        C227   1.413       .  A
C227        C228   1.404       .  A
C227        N231   1.428       .  S
C228        H232   1.084       .  S
N229        O239   1.262       .  A
N229        O240   1.263       .  A
N231        O237   1.261       .  A
N231        O238   1.262       .  A
C241        C242   1.404       .  A
C241        C246   1.411       .  A
C241        H251   1.084       .  S
C242        C247   1.491       .  S
C242        C243   1.407       .  A
C243        C244   1.402       .  A
C243        N248   1.429       .  S
C244        C245   1.409       .  A
C244        H249   1.083       .  S
C245        C246   1.416       .  A
C246        N250   1.428       .  S
C247        C252   1.410       .  A
C247        C256   1.401       .  A
N248        O263   1.262       .  A
N248        O264   1.262       .  A
N250        O261   1.261       .  A
N250        O262   1.262       .  A
C252        C253   1.407       .  A
C252        N257   1.430       .  S
C253        C254   1.407       .  A
C253        H258   1.084       .  S
C254        C255   1.418       .  A
C255        C256   1.407       .  A
C255        N259   1.429       .  S
C256        H260   1.084       .  S
N257        O267   1.262       .  A
N257        O268   1.262       .  A
N259        O265   1.262       .  A
N259        O266   1.262       .  A
C269        C270   1.400       .  A
C269        C274   1.406       .  A
C269        H279   1.084       .  S
C270        C275   1.495       .  S
C270        C271   1.408       .  A
C271        C272   1.409       .  A
C271        N276   1.433       .  S
C272        C273   1.416       .  A
C272        H277   1.077       .  S
C273        C274   1.425       .  A
C274        N278   1.432       .  S
C275        C280   1.409       .  A
C275        C284   1.405       .  A
N276        O291   1.262       .  A
N276        O292   1.262       .  A
N278        O289   1.262       .  A
N278        O290   1.262       .  A
C280        C281   1.405       .  A
C280        N285   1.429       .  S
C281        C282   1.409       .  A
C281        H286   1.084       .  S
C282        C283   1.416       .  A
C283        C284   1.408       .  A
C283        N287   1.429       .  S
C284        H288   1.084       .  S
N285        O295   1.262       .  A
N285        O296   1.262       .  A
N287        O293   1.262       .  A
N287        O294   1.262       .  A
C297        C298   1.405       .  A
C297        C302   1.401       .  A
C297        H307   1.084       .  S
C298        C303   1.485       .  S
C298        C299   1.417       .  A
C299        C300   1.404       .  A
C299        N304   1.440       .  S
C300        C301   1.400       .  A
C300        H305   1.082       .  S
C301        C302   1.407       .  A
C302        N306   1.430       .  S
C303        C308   1.414       .  A
C303        C312   1.404       .  A
N304        O319   1.263       .  A
N304        O320   1.263       .  A
N306        O317   1.262       .  A
N306        O318   1.262       .  A
C308        C309   1.400       .  A
C308        N313   1.439       .  S
C309        C310   1.404       .  A
C309        H314   1.083       .  S
C310        C311   1.415       .  A
C311        C312   1.406       .  A
C311        N315   1.437       .  S
C312        H316   1.084       .  S
N313        O323   1.263       .  A
N313        O324   1.263       .  A
N315        O321   1.262       .  A
N315        O322   1.263       .  A
C325        C326   1.403       .  A
C325        C330   1.408       .  A
C325        H335   1.084       .  S
C326        C331   1.491       .  S
C326        C327   1.413       .  A
C327        C328   1.404       .  A
C327        N332   1.436       .  S
C328        C329   1.407       .  A
C328        H333   1.083       .  S
C329        C330   1.415       .  A
C330        N334   1.428       .  S
C331        C336   1.410       .  A
C331        C340   1.398       .  A
N332        O347   1.262       .  A
N332        O348   1.263       .  A
N334        O345   1.262       .  A
N334        O346   1.261       .  A
C336        C337   1.410       .  A
C336        N341   1.428       .  S
C337        C338   1.409       .  A
C337        H342   1.083       .  S
C338        C339   1.424       .  A
C339        C340   1.399       .  A
C339        N343   1.433       .  S
C340        H344   1.084       .  S
N341        O351   1.262       .  A
N341        O352   1.262       .  A
N343        O349   1.262       .  A
N343        O350   1.262       .  A
C353        C354   1.405       .  A
C353        C358   1.405       .  A
C353        H363   1.084       .  S
C354        C359   1.486       .  S
C354        C355   1.415       .  A
C355        C356   1.399       .  A
C355        N360   1.439       .  S
C356        C357   1.406       .  A
C356        H361   1.084       .  S
C357        C358   1.410       .  A
C358        N362   1.428       .  S
C359        C364   1.417       .  A
C359        C368   1.403       .  A
N360        O375   1.263       .  A
N360        O376   1.263       .  A
N362        O373   1.262       .  A
N362        O374   1.262       .  A
C364        C365   1.405       .  A
C364        N369   1.440       .  S
C365        C366   1.402       .  A
C365        H370   1.083       .  S
C366        C367   1.408       .  A
C367        C368   1.400       .  A
C367        N371   1.429       .  S
C368        H372   1.084       .  S
N369        O379   1.263       .  A
N369        O380   1.263       .  A
N371        O377   1.262       .  A
N371        O378   1.262       .  A
C381        C382   1.400       .  A
C381        C386   1.397       .  A
C381        H391   1.084       .  S
C382        C387   1.484       .  S
C382        C383   1.410       .  A
C383        C384   1.403       .  A
C383        N388   1.437       .  S
C384        C385   1.413       .  A
C384        H389   1.076       .  S
C385        C386   1.421       .  A
C386        N390   1.432       .  S
C387        C392   1.413       .  A
C387        C396   1.403       .  A
N388        O403   1.262       .  A
N388        O404   1.263       .  A
N390        O401   1.262       .  A
N390        O402   1.262       .  A
C392        C393   1.401       .  A
C392        N397   1.437       .  S
C393        C394   1.405       .  A
C393        H398   1.084       .  S
C394        C395   1.412       .  A
C395        C396   1.398       .  A
C395        N399   1.429       .  S
C396        H400   1.084       .  S
N397        O407   1.263       .  A
N397        O408   1.263       .  A
N399        O405   1.261       .  A
N399        O406   1.262       .  A
C409        C410   1.402       .  A
C409        C414   1.402       .  A
C409        H419   1.084       .  S
C410        C415   1.485       .  S
C410        C411   1.416       .  A
C411        C412   1.402       .  A
C411        N416   1.438       .  S
C412        C413   1.405       .  A
C412        H417   1.083       .  S
C413        C414   1.417       .  A
C414        N418   1.437       .  S
C415        C420   1.416       .  A
C415        C424   1.405       .  A
N416        O431   1.262       .  A
N416        O432   1.263       .  A
N418        O429   1.262       .  A
N418        O430   1.263       .  A
C420        C421   1.405       .  A
C420        N425   1.439       .  S
C421        C422   1.401       .  A
C421        H426   1.084       .  S
C422        C423   1.404       .  A
C423        C424   1.399       .  A
C423        N427   1.430       .  S
C424        H428   1.084       .  S
N425        O435   1.263       .  A
N425        O436   1.263       .  A
N427        O433   1.262       .  A
N427        O434   1.262       .  A
C437        C438   1.403       .  A
C437        C442   1.409       .  A
C437        H447   1.084       .  S
C438        C443   1.488       .  S
C438        C439   1.409       .  A
C439        C440   1.403       .  A
C439        N444   1.436       .  S
C440        C441   1.409       .  A
C440        H445   1.083       .  S
C441        C442   1.416       .  A
C442        N446   1.429       .  S
C443        C448   1.409       .  A
C443        C452   1.403       .  A
N444        O459   1.262       .  A
N444        O460   1.262       .  A
N446        O457   1.262       .  A
N446        O458   1.261       .  A
C448        C449   1.402       .  A
C448        N453   1.433       .  S
C449        C450   1.409       .  A
C449        H454   1.083       .  S
C450        C451   1.419       .  A
C451        C452   1.408       .  A
C451        N455   1.429       .  S
C452        H456   1.084       .  S
N453        O463   1.262       .  A
N453        O464   1.262       .  A
N455        O461   1.262       .  A
N455        O462   1.262       .  A
C465        C466   1.402       .  A
C465        C470   1.402       .  A
C465        H475   1.084       .  S
C466        C471   1.490       .  S
C466        C467   1.414       .  A
C467        C468   1.405       .  A
C467        N472   1.436       .  S
C468        C469   1.407       .  A
C468        H473   1.084       .  S
C469        C470   1.418       .  A
C470        N474   1.435       .  S
C471        C476   1.416       .  A
C471        C480   1.402       .  A
N472        O487   1.263       .  A
N472        O488   1.262       .  A
N474        O485   1.263   1_554  A
N474        O486   1.262       .  A
C476        C477   1.407       .  A
C476        N481   1.438       .  S
C477        C478   1.403       .  A
C477        H482   1.084       .  S
C478        C479   1.415       .  A
C479        C480   1.403       .  A
C479        N483   1.435       .  S
C480        H484   1.084       .  S
N481        O491   1.263       .  A
N481        O492   1.263       .  A
N483        O489   1.261       .  A
N483        O490   1.262       .  A
C493        C494   1.410       .  A
C493        C498   1.412       .  A
C493        H503   1.083       .  S
C494        C499   1.507       .  S
C494        C495   1.419       .  A
C495        C496   1.407       .  A
C495        N500   1.439       .  S
C496        C497   1.406       .  A
C496        H501   1.084       .  S
C497        C498   1.413       .  A
C498        N502   1.434       .  S
C499        C504   1.422       .  A
C499        C508   1.407       .  A
N500        O515   1.263       .  A
N500        O516   1.263       .  A
N502        O513   1.262       .  A
N502        O514   1.263       .  A
C504        C505   1.414       .  A
C504        N509   1.435       .  S
C505        C506   1.402       .  A
C505        H510   1.083       .  S
C506        C507   1.409       .  A
C507        C508   1.401       .  A
C507        N511   1.429       .  S
C508        H512   1.083       .  S
N509        O519   1.263       .  A
N509        O520   1.262       .  A
N511        O517   1.262       .  A
N511        O518   1.262       .  A
C521        C522   1.404       .  A
C521        C526   1.407       .  A
C521        H531   1.084       .  S
C522        C527   1.508       .  S
C522        C523   1.416       .  A
C523        C524   1.414       .  A
C523        N528   1.439       .  S
C524        C525   1.417       .  A
C524        H529   1.075       .  S
C525        C526   1.423       .  A
C526        N530   1.431       .  S
C527        C532   1.420       .  A
C527        C536   1.403       .  A
N528        O543   1.263       .  A
N528        O544   1.263       .  A
N530        O541   1.262       .  A
N530        O542   1.262       .  A
C532        C533   1.416       .  A
C532        N537   1.439       .  S
C533        C534   1.410       .  A
C533        H538   1.083       .  S
C534        C535   1.422       .  A
C535        C536   1.406       .  A
C535        N539   1.434       .  S
C536        H540   1.084       .  S
N537        O547   1.262       .  A
N537        O548   1.263       .  A
N539        O545   1.262       .  A
N539        O546   1.262       .  A
C549        C550   1.398       .  A
C549        C554   1.401       .  A
C549        H559   1.084       .  S
C550        C555   1.487       .  S
C550        C551   1.415       .  A
C551        C552   1.411       .  A
C551        N556   1.435       .  S
C552        C553   1.406       .  A
C552        H557   1.084       .  S
C553        C554   1.419       .  A
C554        N558   1.436       .  S
C555        C560   1.414       .  A
C555        C564   1.399       .  A
N556        O571   1.262       .  A
N556        O572   1.262       .  A
N558        O569   1.263       .  A
N558        O570   1.262       .  A
C560        C561   1.410       .  A
C560        N565   1.433       .  S
C561        C562   1.405       .  A
C561        H566   1.084       .  S
C562        C563   1.417       .  A
C563        C564   1.399       .  A
C563        N567   1.433       .  S
C564        H568   1.084       .  S
N565        O575   1.262       .  A
N565        O576   1.262       .  A
N567        O573   1.262       .  A
N567        O574   1.261       .  A
C577        C578   1.400       .  A
C577        C582   1.398       .  A
C577        H587   1.084       .  S
C578        C583   1.478       .  S
C578        C579   1.411       .  A
C579        C580   1.401       .  A
C579        N584   1.437       .  S
C580        C581   1.405       .  A
C580        H585   1.084       .  S
C581        C582   1.416       .  A
C582        N586   1.434       .  S
C583        C588   1.412       .  A
C583        C592   1.402       .  A
N584        O599   1.263       .  A
N584        O600   1.263       .  A
N586        O597   1.263       .  A
N586        O598   1.262       .  A
C588        C589   1.403       .  A
C588        N593   1.437       .  S
C589        C590   1.402       .  A
C589        H594   1.084       .  S
C590        C591   1.411       .  A
C591        C592   1.396       .  A
C591        N595   1.434       .  S
C592        H596   1.084       .  S
N593        O603   1.262       .  A
N593        O604   1.263       .  A
N595        O601   1.262       .  A
N595        O602   1.262       .  A
C605        C606   1.400       .  A
C605        C610   1.398       .  A
C605        H615   1.084       .  S
C606        C611   1.470       .  S
C606        C607   1.410       .  A
C607        C608   1.397       .  A
C607        N612   1.437       .  S
C608        C609   1.403       .  A
C608        H613   1.084       .  S
C609        C610   1.413       .  A
C610        N614   1.430       .  S
C611        C616   1.403       .  A
C611        C620   1.402       .  A
N612        O627   1.262       .  A
N612        O628   1.263       .  A
N614        O625   1.261       .  A
N614        O626   1.262       .  A
C616        C617   1.394       .  A
C616        N621   1.428       .  S
C617        C618   1.404       .  A
C617        H622   1.084       .  S
C618        C619   1.410       .  A
C619        C620   1.398       .  A
C619        N623   1.429       .  S
C620        H624   1.084       .  S
N621        O631   1.262       .  A
N621        O632   1.262       .  A
N623        O629   1.262       .  A
N623        O630   1.261       .  A
C633        C634   1.399       .  A
C633        C638   1.395       .  A
C633        H643   1.084       .  S
C634        C639   1.488       .  S
C634        C635   1.418       .  A
C635        C636   1.409       .  A
C635        N640   1.437       .  S
C636        C637   1.403       .  A
C636        H641   1.084       .  S
C637        C638   1.415       .  A
C638        N642   1.436       .  S
C639        C644   1.417       .  A
C639        C648   1.399       .  A
N640        O655   1.263       .  A
N640        O656   1.263       .  A
N642        O653   1.262       .  A
N642        O654   1.260       .  A
C644        C645   1.407       .  A
C644        N649   1.438       .  S
C645        C646   1.404       .  A
C645        H650   1.083       .  S
C646        C647   1.418       .  A
C647        C648   1.397       .  A
C647        N651   1.431       .  S
C648        H652   1.084       .  S
N649        O659   1.263       .  A
N649        O660   1.263       .  A
N651        O657   1.261       .  A
N651        O658   1.262       .  A
C661        C662   1.404       .  A
C661        C666   1.402       .  A
C661        H671   1.084       .  S
C662        C667   1.495       .  S
C662        C663   1.417       .  A
C663        C664   1.409       .  A
C663        N668   1.439       .  S
C664        C665   1.409       .  A
C664        H669   1.083       .  S
C665        C666   1.414       .  A
C666        N670   1.429       .  S
C667        C672   1.416       .  A
C667        C676   1.401       .  A
N668        O683   1.263       .  A
N668        O684   1.263       .  A
N670        O681   1.262       .  A
N670        O682   1.262       .  A
C672        C673   1.409       .  A
C672        N677   1.439       .  S
C673        C674   1.414       .  A
C673        H678   1.075       .  S
C674        C675   1.422       .  A
C675        C676   1.401       .  A
C675        N679   1.431       .  S
C676        H680   1.084       .  S
N677        O687   1.262       .  A
N677        O688   1.263       .  A
N679        O685   1.262       .  A
N679        O686   1.262       .  A
C689        C690   1.398       .  A
C689        C694   1.398       .  A
C689        H699   1.084       .  S
C690        C695   1.472       .  S
C690        C691   1.406       .  A
C691        C692   1.402       .  A
C691        N696   1.429       .  S
C692        C693   1.407       .  A
C692        H697   1.084       .  S
C693        C694   1.413       .  A
C694        N698   1.431       .  S
C695        C700   1.404       .  A
C695        C704   1.396       .  A
N696        O711   1.262       .  A
N696        O712   1.261       .  A
N698        O709   1.261       .  A
N698        O710   1.262       .  A
C700        C701   1.402       .  A
C700        N705   1.430       .  S
C701        C702   1.409       .  A
C701        H706   1.080       .  S
C702        C703   1.417       .  A
C703        C704   1.397       .  A
C703        N707   1.428       .  S
C704        H708   1.084       .  S
N705        O715   1.262       .  A
N705        O716   1.261       .  A
N707        O713   1.262       .  A
N707        O714   1.261       .  A
C717        C718   1.404       .  A
C717        C722   1.409       .  A
C717        H727   1.084       .  S
C718        C723   1.494       .  S
C718        C719   1.413       .  A
C719        C720   1.406       .  A
C719        N724   1.436       .  S
C720        C721   1.406       .  A
C720        H725   1.083       .  S
C721        C722   1.415       .  A
C722        N726   1.429       .  S
C723        C728   1.410       .  A
C723        C732   1.402       .  A
N724        O739   1.262       .  A
N724        O740   1.263       .  A
N726        O737   1.261       .  A
N726        O738   1.262       .  A
C728        C729   1.409       .  A
C728        N733   1.434       .  S
C729        C730   1.412       .  A
C729        H734   1.083       .  S
C730        C731   1.423       .  A
C731        C732   1.407       .  A
C731        N735   1.437       .  S
C732        H736   1.084       .  S
N733        O743   1.262       .  A
N733        O744   1.262       .  A
N735        O741   1.262       .  A
N735        O742   1.262       .  A
C745        C746   1.399       .  A
C745        C750   1.393       .  A
C745        H755   1.084       .  S
C746        C751   1.480       .  S
C746        C747   1.412       .  A
C747        C748   1.407       .  A
C747        N752   1.436       .  S
C748        C749   1.408       .  A
C748        H753   1.084       .  S
C749        C750   1.417       .  A
C750        N754   1.438       .  S
C751        C756   1.413       .  A
C751        C760   1.405       .  A
N752        O767   1.263       .  A
N752        O768   1.262       .  A
N754        O765   1.263       .  A
N754        O766   1.263       .  A
C756        C757   1.397       .  A
C756        N761   1.439       .  S
C757        C758   1.402       .  A
C757        H762   1.084       .  S
C758        C759   1.409       .  A
C759        C760   1.402       .  A
C759        N763   1.429       .  S
C760        H764   1.084       .  S
N761        O771   1.263       .  A
N761        O772   1.263       .  A
N763        O769   1.261       .  A
N763        O770   1.262       .  A
C773        C774   1.399       .  A
C773        C778   1.405       .  A
C773        H783   1.084       .  S
C774        C779   1.493       .  S
C774        C775   1.409       .  A
C775        C776   1.410       .  A
C775        N780   1.430       .  S
C776        C777   1.411       .  A
C776        H781   1.084       .  S
C777        C778   1.423       .  A
C778        N782   1.433       .  S
C779        C784   1.410       .  A
C779        C788   1.404       .  A
N780        O795   1.262       .  A
N780        O796   1.262       .  A
N782        O793   1.261       .  A
N782        O794   1.262       .  A
C784        C785   1.405       .  A
C784        N789   1.434       .  S
C785        C786   1.409       .  A
C785        H790   1.084       .  S
C786        C787   1.417       .  A
C787        C788   1.411       .  A
C787        N791   1.429       .  S
C788        H792   1.084       .  S
N789        O799   1.262       .  A
N789        O800   1.262       .  A
N791        O797   1.262       .  A
N791        O798   1.262       .  A
C801        C802   1.402       .  A
C801        C806   1.404       .  A
C801        H811   1.084       .  S
C802        C807   1.495       .  S
C802        C803   1.415       .  A
C803        C804   1.413       .  A
C803        N808   1.437       .  S
C804        C805   1.412       .  A
C804        H809   1.083       .  S
C805        C806   1.417       .  A
C806        N810   1.429       .  S
C807        C812   1.412       .  A
C807        C816   1.399       .  A
N808        O823   1.263       .  A
N808        O824   1.262       .  A
N810        O821   1.262       .  A
N810        O822   1.262   1_556  A
C812        C813   1.412       .  A
C812        N817   1.433       .  S
C813        C814   1.410       .  A
C813        H818   1.083       .  S
C814        C815   1.424       .  A
C815        C816   1.406       .  A
C815        N819   1.437       .  S
C816        H820   1.084       .  S
N817        O827   1.262       .  A
N817        O828   1.262       .  A
N819        O825   1.263       .  A
N819        O826   1.261       .  A
C829        C830   1.400       .  A
C829        C834   1.402       .  A
C829        H839   1.084       .  S
C830        C835   1.480       .  S
C830        C831   1.410       .  A
C831        C832   1.402       .  A
C831        N836   1.437       .  S
C832        C833   1.407       .  A
C832        H837   1.083       .  S
C833        C834   1.416       .  A
C834        N838   1.429       .  S
C835        C840   1.410       .  A
C835        C844   1.397       .  A
N836        O851   1.263       .  A
N836        O852   1.262       .  A
N838        O849   1.262       .  A
N838        O850   1.262       .  A
C840        C841   1.401       .  A
C840        N845   1.438       .  S
C841        C842   1.411       .  A
C841        H846   1.075       .  S
C842        C843   1.425       .  A
C843        C844   1.403       .  A
C843        N847   1.433       .  S
C844        H848   1.084       .  S
N845        O855   1.263       .  A
N845        O856   1.262       .  A
N847        O853   1.262       .  A
N847        O854   1.262       .  A
C857        C858   1.402       .  A
C857        C862   1.399       .  A
C857        H867   1.084       .  S
C858        C863   1.473       .  S
C858        C859   1.410       .  A
C859        C860   1.395       .  A
C859        N864   1.437       .  S
C860        C861   1.403       .  A
C860        H865   1.084       .  S
C861        C862   1.410       .  A
C862        N866   1.433       .  S
C863        C868   1.405       .  A
C863        C872   1.398       .  A
N864        O879   1.262       .  A
N864        O880   1.263       .  A
N866        O877   1.262       .  A
N866        O878   1.263       .  A
C868        C869   1.396       .  A
C868        N873   1.436       .  S
C869        C870   1.413       .  A
C869        H874   1.080       .  S
C870        C871   1.423       .  A
C871        C872   1.398       .  A
C871        N875   1.434       .  S
C872        H876   1.084       .  S
N873        O883   1.262       .  A
N873        O884   1.262       .  A
N875        O881   1.263       .  A
N875        O882   1.260       .  A
C885        C886   1.411       .  A
C885        C890   1.416       .  A
C885        H895   1.083       .  S
C886        C891   1.510       .  S
C886        C887   1.418       .  A
C887        C888   1.406       .  A
C887        N892   1.439       .  S
C888        C889   1.407       .  A
C888        H893   1.083       .  S
C889        C890   1.416       .  A
C890        N894   1.435       .  S
C891        C896   1.421       .  A
C891        C900   1.407       .  A
N892        O907   1.263       .  A
N892        O908   1.263       .  A
N894        O905   1.262       .  A
N894        O906   1.263       .  A
C896        C897   1.416       .  A
C896        N901   1.436       .  S
C897        C898   1.405       .  A
C897        H902   1.083       .  S
C898        C899   1.415       .  A
C899        C900   1.404       .  A
C899        N903   1.434       .  S
C900        H904   1.084       .  S
N901        O911   1.262       .  A
N901        O912   1.263       .  A
N903        O909   1.262       .  A
N903        O910   1.262       .  A
C913        C914   1.405       .  A
C913        C918   1.408       .  A
C913        H923   1.084       .  S
C914        C919   1.505       .  S
C914        C915   1.419       .  A
C915        C916   1.417       .  A
C915        N920   1.437       .  S
C916        C917   1.406       .  A
C916        H921   1.082       .  S
C917        C918   1.417       .  A
C918        N922   1.437       .  S
C919        C924   1.419       .  A
C919        C928   1.397       .  A
N920        O935   1.263       .  A
N920        O936   1.262       .  A
N922        O933   1.263       .  A
N922        O934   1.262       .  A
C924        C925   1.422       .  A
C924        N929   1.435       .  S
C925        C926   1.412       .  A
C925        H930   1.083       .  S
C926        C927   1.414       .  A
C927        C928   1.400       .  A
C927        N931   1.420       .  S
C928        H932   1.084       .  S
N929        O939   1.263       .  A
N929        O940   1.262       .  A
N931        O937   1.261       .  A
N931        O938   1.261       .  A
C941        C942   1.401       .  A
C941        C946   1.401       .  A
C941        H951   1.084       .  S
C942        C947   1.478       .  S
C942        C943   1.410       .  A
C943        C944   1.399       .  A
C943        N948   1.435       .  S
C944        C945   1.405       .  A
C944        H949   1.084       .  S
C945        C946   1.414       .  A
C946        N950   1.429       .  S
C947        C952   1.412       .  A
C947        C956   1.400       .  A
N948        O963   1.262       .  A
N948        O964   1.262       .  A
N950        O961   1.262       .  A
N950        O962   1.262       .  A
C952        C953   1.402       .  A
C952        N957   1.436       .  S
C953        C954   1.404       .  A
C953        H958   1.084       .  S
C954        C955   1.415       .  A
C955        C956   1.399       .  A
C955        N959   1.432       .  S
C956        H960   1.084       .  S
N957        O967   1.262       .  A
N957        O968   1.263       .  A
N959        O965   1.262       .  A
N959        O966   1.262       .  A
C969        C970   1.398       .  A
C969        C974   1.400       .  A
C969        H979   1.084       .  S
C970        C975   1.477       .  S
C970        C971   1.406       .  A
C971        C972   1.403       .  A
C971        N976   1.429       .  S
C972        C973   1.409       .  A
C972        H977   1.084       .  S
C973        C974   1.416       .  A
C974        N978   1.429       .  S
C975        C980   1.404       .  A
C975        C984   1.397       .  A
N976        O991   1.262       .  A
N976        O992   1.262       .  A
N978        O989   1.262       .  A
N978        O990   1.261       .  A
C980        C981   1.402       .  A
C980        N985   1.435       .  S
C981        C982   1.416       .  A
C981        H986   1.061       .  S
C982        C983   1.422       .  A
C983        C984   1.403       .  A
C983        N987   1.429       .  S
C984        H988   1.082       .  S
N985        O995   1.262       .  A
N985        O996   1.262       .  A
N987        O993   1.261       .  A
N987        O994   1.262       .  A
C997        C998   1.402       .  A
C997       C1002   1.409       .  A
C997       H1007   1.084       .  S
C998       C1003   1.494       .  S
C998        C999   1.409       .  A
C999       C1000   1.408       .  A
C999       N1004   1.434       .  S
C1000      C1001   1.412       .  A
C1000      H1005   1.083       .  S
C1001      C1002   1.424       .  A
C1002      N1006   1.433       .  S
C1003      C1008   1.406       .  A
C1003      C1012   1.403       .  A
N1004      O1019   1.262       .  A
N1004      O1020   1.263       .  A
N1006      O1017   1.261       .  A
N1006      O1018   1.262       .  A
C1008      C1009   1.406       .  A
C1008      N1013   1.436       .  S
C1009      C1010   1.418       .  A
C1009      H1014   1.077       .  S
C1010      C1011   1.424       .  A
C1011      C1012   1.411       .  A
C1011      N1015   1.434       .  S
C1012      H1016   1.084       .  S
N1013      O1023   1.262       .  A
N1013      O1024   1.263       .  A
N1015      O1021   1.262       .  A
N1015      O1022   1.262       .  A
C1025      C1026   1.394       .  A
C1025      C1030   1.393       .  A
C1025      H1035   1.085       .  S
C1026      C1031   1.483       .  S
C1026      C1027   1.413       .  A
C1027      C1028   1.411       .  A
C1027      N1032   1.435       .  S
C1028      C1029   1.409       .  A
C1028      H1033   1.083       .  S
C1029      C1030   1.415       .  A
C1030      N1034   1.428       .  S
C1031      C1036   1.414       .  A
C1031      C1040   1.404       .  A
N1032      O1047   1.262       .  A
N1032      O1048   1.262       .  A
N1034      O1045   1.262       .  A
N1034      O1046   1.261       .  A
C1036      C1037   1.399       .  A
C1036      N1041   1.439       .  S
C1037      C1038   1.403       .  A
C1037      H1042   1.084       .  S
C1038      C1039   1.412       .  A
C1039      C1040   1.405       .  A
C1039      N1043   1.430       .  S
C1040      H1044   1.084       .  S
N1041      O1051   1.263       .  A
N1041      O1052   1.263       .  A
N1043      O1049   1.262       .  A
N1043      O1050   1.262       .  A
C1053      C1054   1.403       .  A
C1053      C1058   1.400       .  A
C1053      H1063   1.084       .  S
C1054      C1059   1.480       .  S
C1054      C1055   1.412       .  A
C1055      C1056   1.403       .  A
C1055      N1060   1.440       .  S
C1056      C1057   1.407       .  A
C1056      H1061   1.084       .  S
C1057      C1058   1.411       .  A
C1058      N1062   1.429       .  S
C1059      C1064   1.416       .  A
C1059      C1068   1.399       .  A
N1060      O1075   1.263       .  A
N1060      O1076   1.263       .  A
N1062      O1073   1.262       .  A
N1062      O1074   1.262       .  A
C1064      C1065   1.404       .  A
C1064      N1069   1.439       .  S
C1065      C1066   1.404       .  A
C1065      H1070   1.084       .  S
C1066      C1067   1.413       .  A
C1067      C1068   1.398       .  A
C1067      N1071   1.427       .  S
C1068      H1072   1.084       .  S
N1069      O1079   1.263       .  A
N1069      O1080   1.263       .  A
N1071      O1077   1.261       .  A
N1071      O1078   1.262       .  A
C1081      C1082   1.403       .  A
C1081      C1086   1.406       .  A
C1081      H1091   1.084       .  S
C1082      C1087   1.497       .  S
C1082      C1083   1.418       .  A
C1083      C1084   1.409       .  A
C1083      N1088   1.438       .  S
C1084      C1085   1.408       .  A
C1084      H1089   1.084       .  S
C1085      C1086   1.416       .  A
C1086      N1090   1.429       .  S
C1087      C1092   1.416       .  A
C1087      C1096   1.407       .  A
N1088      O1103   1.263       .  A
N1088      O1104   1.263       .  A
N1090      O1101   1.261       .  A
N1090      O1102   1.262       .  A
C1092      C1093   1.407       .  A
C1092      N1097   1.439       .  S
C1093      C1094   1.405       .  A
C1093      H1098   1.084       .  S
C1094      C1095   1.410       .  A
C1095      C1096   1.409       .  A
C1095      N1099   1.433       .  S
C1096      H1100   1.084       .  S
N1097      O1107   1.263       .  A
N1097      O1108   1.263       .  A
N1099      O1105   1.262       .  A
N1099      O1106   1.262       .  A
