geometry optimzed in LAMMPS
_audit_creation_date              2020-11-30 
_audit_creation_method            'lammps2cif' 
_symmetry_space_group_name_H-M    'P1' 
_symmetry_Int_Tables_number       1 
_symmetry_cell_setting            triclinic 
loop_ 
_symmetry_equiv_pos_as_xyz 
  x,y,z 
_cell_length_a                    25.81596186 
_cell_length_b                    25.83857884241187 
_cell_length_c                    25.86861171646612 
_cell_angle_alpha                 90.00012394295166 
_cell_angle_beta                  89.72106736627546 
_cell_angle_gamma                 90.09581904660102 
loop_ 
_atom_site_label 
_atom_site_type_symbol 
_atom_site_fract_x 
_atom_site_fract_y 
_atom_site_fract_z 
_atom_site_charge 
N1          N  0.99651457  0.50427944  0.41889608    -0.36600
N2          N  0.01045901  0.42341857  0.49612771    -0.57100
N3          N  0.01557833  0.50127599  0.57606845    -0.36600
N4          N  0.99494171  0.58204936  0.49879983    -0.57100
C5          C  0.98453558  0.46110366  0.39172713     0.27000
C6          C  0.97504019  0.54509541  0.39396441     0.27000
C7          C  0.00735276  0.45792073  0.60446898     0.27000
C8          C  0.00084301  0.54199984  0.60553188     0.27000
C9          C  0.01883550  0.39552436  0.45272026     0.35600
C10         C  0.02613607  0.39368368  0.53611979     0.35600
C11         C  0.99927782  0.61276153  0.45665303     0.35600
C12         C  0.01048608  0.61071948  0.53951098     0.35600
C13         C  0.95486240  0.47448497  0.34929473    -0.21900
C14         C  0.94843768  0.52735709  0.35097274    -0.21900
C15         C  0.98729072  0.47134188  0.65241891    -0.21900
C16         C  0.98308694  0.52436002  0.65305102    -0.21900
C17         C  0.04059799  0.34808581  0.46519461    -0.22900
C18         C  0.04489980  0.34681383  0.51810850    -0.22900
C19         C  0.01847735  0.66089938  0.47057674    -0.22900
C20         C  0.02542793  0.65963901  0.52315995    -0.22900
C21         C  0.00209172  0.41038235  0.40286868    -0.18300
C22         C  0.98315093  0.59805388  0.40660263    -0.18300
C23         C  0.00602310  0.59472241  0.59154681    -0.18300
C24         C  0.01900334  0.40676338  0.58870989    -0.18300
H25         H  0.93949801  0.44880888  0.32006606     0.14600
H26         H  0.92727443  0.55022446  0.32313577     0.14600
H27         H  0.97637695  0.44563474  0.68365994     0.14600
H28         H  0.96843698  0.54726811  0.68492109     0.14600
H29         H  0.05120723  0.31711102  0.43907502     0.12900
H30         H  0.05946287  0.31481843  0.54076466     0.12900
H31         H  0.02665150  0.69358156  0.44569547     0.12900
H32         H  0.03941966  0.69128207  0.54671452     0.12900
H33         H  0.02306222  0.50628280  0.44901136     0.26200
H34         H  0.03484142  0.50352789  0.54066015     0.26200
O35         O  0.00334630  0.14969575  0.08174665    -0.80100
O36         O  0.99080146  0.85637834  0.08448995    -0.81700
O37         O  0.91347738  0.00301502  0.14499903    -0.78700
O38         O  0.08491257  0.99845293  0.14555269    -0.77100
O39         O  0.14791832  0.99579942  0.08302085    -0.78900
O40         O  0.85085792  0.99931955  0.08275176    -0.79800
O41         O  0.98890921  0.91873624  0.14734393    -0.81100
O42         O  0.99872368  0.08772424  0.14489243    -0.81400
Eu43       Eu  0.99940344  0.00232327  0.10307575     2.39200
O44         O  0.05178761  0.94773323  0.05159266    -0.88900
O45         O  0.94789417  0.05550149  0.05028388    -0.92500
C46         C  0.00110400  0.13523647  0.12957774     1.02200
C47         C  0.98661154  0.87121751  0.13209726     1.02000
C48         C  0.86578403  0.00033971  0.13028321     1.01900
C49         C  0.13280330  0.99606880  0.13072864     0.99800
H50         H  0.92472087  0.92939316  0.07102041     0.29500
O51         O  0.94736409  0.95043412  0.04988253    -1.01300
H52         H  0.07567613  0.07474127  0.07126179     0.29600
O53         O  0.05359648  0.05342966  0.04999910    -1.03800
O54         O  0.00045744  0.85228104  0.91421503    -0.81100
O55         O  0.00661500  0.14758874  0.91059283    -0.80600
O56         O  0.85227005  0.91743642  0.99963740    -0.79000
O57         O  0.14666621  0.91282021  0.00161806    -0.82400
O58         O  0.14949705  0.08332710  0.99531522    -0.80200
O59         O  0.85397152  0.08848603  0.00052328    -0.78900
O60         O  0.91327873  0.00543857  0.85135774    -0.80400
O61         O  0.08392662  0.99954636  0.84960908    -0.82300
O62         O  0.85108307  0.00411811  0.91474174    -0.79100
O63         O  0.14642531  0.99645455  0.91216882    -0.81700
O64         O  0.91442155  0.85440374  0.99519444    -0.77500
O65         O  0.91742263  0.15035253  0.99509798    -0.77500
O66         O  0.08784338  0.14676095  0.99269087    -0.77200
O67         O  0.08313716  0.85098888  0.00009451    -0.80700
O68         O  0.99543132  0.91430654  0.85120755    -0.80100
O69         O  0.00159954  0.08471519  0.84839165    -0.78400
Eu70       Eu  0.99912333  0.89627476  0.99825986     2.39800
Eu71       Eu  0.00191277  0.10625161  0.99668828     2.39600
Eu72       Eu  0.89487015  0.00270284  0.99838438     2.38400
Eu73       Eu  0.10516387  0.99876584  0.99802682     2.39900
Eu74       Eu  0.99896562  0.00025968  0.89252694     2.39800
O75         O  0.05277351  0.05117539  0.94526017    -0.92800
O76         O  0.94603313  0.94847617  0.94567103    -0.91700
C77         C  0.99782844  0.86677874  0.86657830     1.02300
C78         C  0.00520459  0.13239687  0.86298838     1.01100
C79         C  0.86701363  0.86971681  0.99772795     1.00500
C80         C  0.13107917  0.86524933  0.00200565     1.02500
C81         C  0.13534704  0.13125121  0.99286693     1.01400
C82         C  0.86954587  0.13593245  0.99779953     1.00200
C83         C  0.86570488  0.00601874  0.86704668     1.00300
C84         C  0.13153551  0.99767087  0.86458292     1.02900
H85         H  0.92682035  0.07644801  0.92360477     0.30300
O86         O  0.94790063  0.05442206  0.94501649    -1.05000
H87         H  0.07317362  0.92536429  0.92354212     0.32300
O88         O  0.05192671  0.94753704  0.94489045    -1.07500
N89         N  0.50169723  0.00492467  0.57799331    -0.36600
N90         N  0.42164956  0.99779093  0.49946779    -0.57100
N91         N  0.50107496  0.98163657  0.42151738    -0.36600
N92         N  0.58095483  0.99460619  0.50050936    -0.57100
C93         C  0.45946326  0.01993942  0.60492064     0.27000
C94         C  0.54366747  0.02113021  0.60450973     0.27000
C95         C  0.45947086  0.99387973  0.39211115     0.27000
C96         C  0.54410379  0.99171183  0.39306204     0.27000
C97         C  0.39344008  0.98922949  0.54289635     0.35600
C98         C  0.39263704  0.98083263  0.45936686     0.35600
C99         C  0.60978518  0.98859891  0.54350357     0.35600
C100        C  0.60938726  0.97575590  0.46093906     0.35600
C101        C  0.47457350  0.04685130  0.64876202    -0.21900
C102        C  0.52790089  0.04774956  0.64841846    -0.21900
C103        C  0.47639860  0.01232123  0.34460023    -0.21900
C104        C  0.52970255  0.01087994  0.34516835    -0.21900
C105        C  0.34652303  0.96642448  0.53031989    -0.22900
C106        C  0.34596799  0.96124203  0.47744914    -0.22900
C107        C  0.65657897  0.96526214  0.53137198    -0.22900
C108        C  0.65632675  0.95709546  0.47888921    -0.22900
C109        C  0.40828882  0.00494397  0.59322654    -0.18300
C110        C  0.59524663  0.00715750  0.59273008    -0.18300
C111        C  0.59575006  0.98145064  0.40851100    -0.18300
C112        C  0.40688122  0.98607962  0.40659305    -0.18300
H113        H  0.44981792  0.06293676  0.67856301     0.14600
H114        H  0.55224683  0.06455622  0.67796977     0.14600
H115        H  0.45292311  0.02567604  0.31276375     0.14600
H116        H  0.55490952  0.02283153  0.31381800     0.14600
H117        H  0.31579503  0.95476728  0.55644630     0.12900
H118        H  0.31483196  0.94470718  0.45495550     0.12900
H119        H  0.68781200  0.95568139  0.55741686     0.12900
H120        H  0.68751598  0.94036297  0.45636464     0.12900
H121        H  0.50165956  0.97861627  0.54754425     0.26200
H122        H  0.50017706  0.96248391  0.45695444     0.26200
N123        N  0.50166500  0.57978090  0.02582075    -0.36600
N124        N  0.42236484  0.50090297  0.01146413    -0.57100
N125        N  0.50191844  0.42301124  0.00259880    -0.36600
N126        N  0.58116297  0.50140878  0.01206494    -0.57100
C127        C  0.45907068  0.60854430  0.01559616     0.27000
C128        C  0.54368458  0.60860001  0.01290860     0.27000
C129        C  0.46019173  0.39793887  0.98327172     0.27000
C130        C  0.54460846  0.39778486  0.98559809     0.27000
C131        C  0.39378081  0.54027833  0.03069532     0.35600
C132        C  0.39351766  0.45748975  0.01698244     0.35600
C133        C  0.61024120  0.54172124  0.02793539     0.35600
C134        C  0.61033417  0.45865009  0.01849042     0.35600
C135        C  0.47414541  0.65615439  0.99591465    -0.21900
C136        C  0.52750386  0.65609429  0.99393932    -0.21900
C137        C  0.47676694  0.35692610  0.95276276    -0.21900
C138        C  0.53007822  0.35648806  0.95475654    -0.21900
C139        C  0.34688105  0.52179670  0.04933015    -0.22900
C140        C  0.34680998  0.46925692  0.04093688    -0.22900
C141        C  0.65789728  0.52447251  0.04544478    -0.22900
C142        C  0.65792265  0.47161461  0.03951834    -0.22900
C143        C  0.40722511  0.59306335  0.02540786    -0.18300
C144        C  0.59602371  0.59388284  0.02073268    -0.18300
C145        C  0.59595267  0.40925735  0.00047045    -0.18300
C146        C  0.40796548  0.40853827  0.99691681    -0.18300
H147        H  0.44933519  0.68757644  0.98383991     0.14600
H148        H  0.55156061  0.68755948  0.98011347     0.14600
H149        H  0.45293281  0.32947854  0.93203508     0.14600
H150        H  0.55528730  0.32878392  0.93593576     0.14600
H151        H  0.31564965  0.54401755  0.06634252     0.12900
H152        H  0.31564007  0.44302091  0.05092231     0.12900
H153        H  0.68969597  0.54762993  0.05982002     0.12900
H154        H  0.68975186  0.44594576  0.04839439     0.12900
H155        H  0.50203721  0.54444213  0.04523024     0.26200
H156        H  0.50125118  0.45149810  0.03110110     0.26200
C157        C  0.70333025  0.80303040  0.06972857    -0.17800
C158        C  0.66617670  0.76385244  0.07402764    -0.20000
C159        C  0.67118732  0.71806742  0.04530972     0.20700
C160        C  0.71434735  0.71137986  0.01228644    -0.02900
C161        C  0.75219039  0.75063499  0.00844470    -0.06000
C162        C  0.74626453  0.79689603  0.03690298     0.21000
C163        C  0.79578622  0.74367430  0.97604369     0.19100
C164        C  0.80106873  0.69766673  0.94768530    -0.17400
C165        C  0.76307861  0.65909088  0.95084277    -0.19700
C166        C  0.71951362  0.66567299  0.98287183     0.20600
C167        C  0.68077527  0.62763466  0.98569291    -0.32700
C168        C  0.63758667  0.63405818  0.01856743     0.01300
C169        C  0.63358040  0.67905119  0.04880551    -0.24000
C170        C  0.78338271  0.83618675  0.03209800    -0.28600
C171        C  0.82690035  0.82935655  0.00011898     0.07000
C172        C  0.83320700  0.78289878  0.97255859    -0.27300
H173        H  0.69843839  0.83818715  0.09202770     0.11700
H174        H  0.63326282  0.76954242  0.09953147     0.12800
H175        H  0.83436562  0.69170443  0.92272996     0.11900
H176        H  0.76775200  0.62411176  0.92820381     0.11100
H177        H  0.68394479  0.59309581  0.96209080     0.16500
H178        H  0.60066601  0.68387371  0.07453753     0.12400
H179        H  0.77907409  0.87163983  0.05414149     0.15300
H180        H  0.86695342  0.77760171  0.94799735     0.15100
C181        C  0.76368872  0.34170695  0.93498273    -0.17800
C182        C  0.80249085  0.30389149  0.93557217    -0.20000
C183        C  0.79705642  0.25951178  0.96647081     0.20700
C184        C  0.75190297  0.25300183  0.99680085    -0.02900
C185        C  0.71292582  0.29124149  0.99642697    -0.06000
C186        C  0.71887893  0.33587236  0.96543501     0.21000
C187        C  0.66812698  0.28487771  0.02731317     0.19100
C188        C  0.66260547  0.24053667  0.05810841    -0.17400
C189        C  0.70101890  0.20251100  0.05819434    -0.19700
C190        C  0.74567376  0.20830629  0.02762071     0.20600
C191        C  0.78417526  0.17015798  0.02736897    -0.32700
C192        C  0.82943510  0.17656868  0.99767643     0.01300
C193        C  0.83583939  0.22147258  0.96755893    -0.24000
C194        C  0.68012727  0.37398059  0.96594546    -0.28600
C195        C  0.63579058  0.36794714  0.99723541     0.07000
C196        C  0.62984773  0.32318564  0.02735094    -0.27300
H197        H  0.76885798  0.37565958  0.91090973     0.11700
H198        H  0.83679355  0.30937965  0.91188153     0.12800
H199        H  0.62852295  0.23525484  0.08215645     0.11900
H200        H  0.69581971  0.16855245  0.08225240     0.11100
H201        H  0.77930366  0.13572014  0.05087703     0.16500
H202        H  0.87054975  0.22627022  0.94426344     0.12400
H203        H  0.68453616  0.40858711  0.94261613     0.15300
H204        H  0.59569376  0.31878208  0.05153843     0.15100
C205        C  0.29223157  0.79813895  0.07971896    -0.17800
C206        C  0.33004744  0.75959064  0.08434846    -0.20000
C207        C  0.32756949  0.71456494  0.05404052     0.20700
C208        C  0.28561206  0.70776850  0.01981329    -0.02900
C209        C  0.24688406  0.74626488  0.01585693    -0.06000
C210        C  0.25080296  0.79209027  0.04524737     0.21000
C211        C  0.20468079  0.73919843  0.98198102     0.19100
C212        C  0.20169425  0.69377641  0.95234179    -0.13700
C213        C  0.24055582  0.65617610  0.95549127    -0.19700
C214        C  0.28277843  0.66295491  0.98882879     0.20600
C215        C  0.32254609  0.62606820  0.99108450    -0.32700
C216        C  0.36477757  0.63254239  0.02473145     0.01300
C217        C  0.36664772  0.67667738  0.05664157    -0.24000
C218        C  0.21338493  0.83110986  0.03951790    -0.28600
C219        C  0.17101699  0.82426373  0.00616868     0.07000
C220        C  0.16655108  0.77786224  0.97801147    -0.27300
H221        H  0.29552851  0.83285388  0.10296203     0.11700
H222        H  0.36173548  0.76541492  0.11104388     0.12800
H223        H  0.16962810  0.68763130  0.92616173     0.11900
H224        H  0.23769839  0.62183427  0.93162668     0.11100
H225        H  0.32102131  0.59235463  0.96617781     0.16500
H226        H  0.39890173  0.68174702  0.08285427     0.12400
H227        H  0.21661783  0.86649424  0.06181203     0.15300
H228        H  0.13400495  0.77239999  0.95221805     0.15100
C229        C  0.31635180  0.18728414  0.02103452    -0.17800
C230        C  0.35406472  0.22615557  0.02207043    -0.20000
C231        C  0.34216105  0.27656849  0.00593578     0.20700
C232        C  0.29213227  0.28774993  0.98745800    -0.02900
C233        C  0.25366198  0.24879024  0.98758270    -0.06000
C234        C  0.26587914  0.19834843  0.00454647     0.21000
C235        C  0.20293438  0.26046814  0.97134893     0.19100
C236        C  0.19151904  0.31054854  0.95368527    -0.17400
C237        C  0.23000741  0.34883186  0.95238620    -0.19700
C238        C  0.28034158  0.33797912  0.96965322     0.20600
C239        C  0.31883404  0.37658019  0.97033812    -0.32700
C240        C  0.36806895  0.36651193  0.99154688     0.01300
C241        C  0.37915734  0.31615328  0.00907034    -0.24000
C242        C  0.22735733  0.15998337  0.00529575    -0.28600
C243        C  0.17635057  0.17151494  0.99029271     0.07000
C244        C  0.16453821  0.22194849  0.97325825    -0.27300
H245        H  0.32646659  0.14872043  0.03392379     0.11700
H246        H  0.39251977  0.21684853  0.03581442     0.12800
H247        H  0.15280015  0.32011510  0.94085426     0.11900
H248        H  0.22017500  0.38717276  0.93864611     0.11100
H249        H  0.31008651  0.41486248  0.95567542     0.16500
H250        H  0.41662188  0.30788083  0.02587265     0.12400
H251        H  0.23690144  0.12139856  0.01863279     0.15300
H252        H  0.12550519  0.23120249  0.96109475     0.15100
C253        C  0.65636191  0.95403245  0.76482179    -0.17800
C254        C  0.69386616  0.95440525  0.80354921    -0.20000
C255        C  0.73971497  0.98292775  0.79710829     0.20700
C256        C  0.74774884  0.01182959  0.75143910    -0.02900
C257        C  0.70971238  0.01177336  0.71251975    -0.06000
C258        C  0.66400655  0.98241704  0.71921154     0.21000
C259        C  0.71768155  0.04051840  0.66672581     0.19100
C260        C  0.76340967  0.06938548  0.66051530    -0.17400
C261        C  0.80129289  0.06922904  0.69903935    -0.19700
C262        C  0.79403936  0.04019274  0.74437513     0.20600
C263        C  0.83251236  0.03831443  0.78243277    -0.32700
C264        C  0.82484967  0.00906469  0.82765660     0.01300
C265        C  0.77802904  0.98232496  0.83518933    -0.24000
C266        C  0.62694262  0.98150076  0.67997740    -0.28600
C267        C  0.63467253  0.00978101  0.63426147     0.07000
C268        C  0.67992221  0.03950468  0.62790170    -0.27300
H269        H  0.62144207  0.93135407  0.77045088     0.11700
H270        H  0.68723367  0.93196601  0.83835175     0.12800
H271        H  0.77006583  0.09174782  0.62567018     0.11900
H272        H  0.83646619  0.09146809  0.69318649     0.11100
H273        H  0.86834221  0.05965052  0.77700863     0.16500
H274        H  0.77209419  0.95977678  0.87008934     0.12400
H275        H  0.59211321  0.95840474  0.68463673     0.15300
H276        H  0.68571257  0.06140045  0.59257977     0.15100
C277        C  0.34516450  0.94898289  0.76597190    -0.17800
C278        C  0.30602167  0.94741988  0.80361174    -0.20000
C279        C  0.25896867  0.97332045  0.79562784     0.20700
C280        C  0.25136605  0.00130770  0.74944334    -0.02900
C281        C  0.29113658  0.00363052  0.71193235    -0.06000
C282        C  0.33804523  0.97686101  0.71994016     0.21000
C283        C  0.28370770  0.03242258  0.66620469     0.19100
C284        C  0.23680929  0.05843120  0.65828243    -0.17400
C285        C  0.19709964  0.05540067  0.69501597    -0.19700
C286        C  0.20395683  0.02692475  0.74061125     0.20600
C287        C  0.16440276  0.02411923  0.77774004    -0.32700
C288        C  0.17217211  0.99743452  0.82434977     0.01300
C289        C  0.21947704  0.97201568  0.83304267    -0.24000
C290        C  0.37649119  0.97783949  0.68134543    -0.28600
C291        C  0.36876032  0.00585067  0.63530744     0.07000
C292        C  0.32288164  0.03402982  0.62869671    -0.27300
H293        H  0.38096311  0.92831200  0.77282369     0.11700
H294        H  0.31243887  0.92572498  0.83885037     0.12800
H295        H  0.23061080  0.08066160  0.62334641     0.11900
H296        H  0.16103813  0.07548581  0.68782168     0.11100
H297        H  0.12810322  0.04404511  0.77106485     0.16500
H298        H  0.22537956  0.95099501  0.86880986     0.12400
H299        H  0.41208224  0.95628565  0.68661312     0.15300
H300        H  0.31731933  0.05622446  0.59358893     0.15100
C301        C  0.30397591  0.93592565  0.19386416    -0.17800
C302        C  0.34135515  0.93306434  0.23294892    -0.20000
C303        C  0.33395574  0.95897187  0.28018497     0.20700
C304        C  0.28800976  0.98742544  0.28821421    -0.02900
C305        C  0.24967529  0.98925154  0.24924695    -0.06000
C306        C  0.25798313  0.96394703  0.20156925     0.21000
C307        C  0.20312393  0.01653609  0.25802734     0.19100
C308        C  0.19552185  0.04209158  0.30532040    -0.17400
C309        C  0.23394160  0.04132746  0.34330698    -0.19700
C310        C  0.28039140  0.01431671  0.33508261     0.20600
C311        C  0.31941132  0.01415655  0.37278483    -0.32700
C312        C  0.36536567  0.98553280  0.36568745     0.01300
C313        C  0.37172599  0.95725169  0.31934366    -0.24000
C314        C  0.22010695  0.96699259  0.16265299    -0.28600
C315        C  0.17325191  0.99364817  0.17140115     0.07000
C316        C  0.16503343  0.01794800  0.21941897    -0.27300
H317        H  0.31098533  0.91604223  0.15763605     0.11700
H318        H  0.37635758  0.91100836  0.22599045     0.12800
H319        H  0.15999033  0.06312846  0.31277497     0.11900
H320        H  0.22725602  0.06184258  0.37924566     0.11100
H321        H  0.31407801  0.03660187  0.40779749     0.16500
H322        H  0.40647610  0.93446547  0.31350403     0.12400
H323        H  0.22663086  0.94778245  0.12593926     0.15300
H324        H  0.12928083  0.03883417  0.22639439     0.15100
C325        C  0.66393910  0.92591844  0.23824680    -0.17800
C326        C  0.70023003  0.93064605  0.19814141    -0.20000
C327        C  0.74384721  0.96265777  0.20381491     0.20700
C328        C  0.75068336  0.99055520  0.25021969    -0.02900
C329        C  0.71340370  0.98678879  0.29014602    -0.06000
C330        C  0.67009305  0.95391929  0.28429053     0.21000
C331        C  0.71922041  0.01633112  0.33563882     0.19100
C332        C  0.76269508  0.04847821  0.34130777    -0.17400
C333        C  0.80032722  0.05115701  0.30233076    -0.19700
C334        C  0.79465439  0.02241301  0.25668795     0.20600
C335        C  0.83215589  0.02505790  0.21740673    -0.32700
C336        C  0.82550568  0.99770946  0.17097509     0.01300
C337        C  0.78091914  0.96707597  0.16411807    -0.24000
C338        C  0.63317994  0.95046618  0.32411098    -0.28600
C339        C  0.63770941  0.98123891  0.36867927     0.07000
C340        C  0.68101069  0.01390660  0.37423177    -0.27300
H341        H  0.63071611  0.90080654  0.23301065     0.11700
H342        H  0.69432765  0.90902253  0.16277955     0.12800
H343        H  0.76766816  0.07146559  0.37596898     0.11900
H344        H  0.83370748  0.07603296  0.30771778     0.11100
H345        H  0.86625036  0.04904319  0.22260281     0.16500
H346        H  0.77582587  0.94563744  0.12846142     0.12400
H347        H  0.59998912  0.92507048  0.31989189     0.15300
H348        H  0.68445299  0.03804450  0.40833746     0.15100
C349        C  0.08192247  0.33269757  0.75415008    -0.17800
C350        C  0.07931959  0.29481351  0.79282964    -0.20000
C351        C  0.04474008  0.25303600  0.78854687     0.20700
C352        C  0.01239180  0.24945796  0.74483137    -0.02900
C353        C  0.01474263  0.28793013  0.70597373    -0.06000
C354        C  0.04987061  0.32961975  0.71054229     0.21000
C355        C  0.98183513  0.28470924  0.66266799     0.19100
C356        C  0.94693847  0.24321044  0.65859179    -0.17400
C357        C  0.94498960  0.20484731  0.69676762    -0.19700
C358        C  0.97765841  0.20747168  0.73992231     0.20600
C359        C  0.97610841  0.16896569  0.77828965    -0.32700
C360        C  0.00782022  0.17258222  0.82221688     0.01300
C361        C  0.04186009  0.21485455  0.82719250    -0.24000
C362        C  0.05205786  0.36757404  0.67160248    -0.28600
C363        C  0.01911821  0.36473187  0.62846404     0.07000
C364        C  0.98412471  0.32317021  0.62437868    -0.27300
H365        H  0.10896875  0.36450496  0.75841306     0.11700
H366        H  0.10444157  0.29816168  0.82611011     0.12800
H367        H  0.92124697  0.24030123  0.62571710     0.11900
H368        H  0.91784908  0.17310526  0.69255245     0.11100
H369        H  0.94952623  0.13665299  0.77452549     0.16500
H370        H  0.06662953  0.21755478  0.86083140     0.12400
H371        H  0.07886996  0.39972458  0.67499324     0.15300
H372        H  0.95822671  0.32124930  0.59155851     0.15100
C373        C  0.93596682  0.79699099  0.70038997    -0.17800
C374        C  0.93649758  0.75853914  0.66235853    -0.20000
C375        C  0.96911616  0.71544707  0.66716746     0.20700
C376        C  0.00140781  0.71087590  0.71078513    -0.02900
C377        C  0.00010609  0.74914438  0.74966886    -0.06000
C378        C  0.96755293  0.79263471  0.74415843     0.21000
C379        C  0.03151686  0.74400069  0.79388985     0.19100
C380        C  0.06449191  0.70110732  0.79842837    -0.17400
C381        C  0.06651587  0.66368571  0.75938203    -0.19700
C382        C  0.03511027  0.66819278  0.71549548     0.20600
C383        C  0.03694233  0.63091320  0.67616098    -0.32700
C384        C  0.00440067  0.63487218  0.63290973     0.01300
C385        C  0.97011349  0.67693814  0.62906820    -0.24000
C386        C  0.96729557  0.83108414  0.78240390    -0.28600
C387        C  0.99809282  0.82596216  0.82671089     0.07000
C388        C  0.02967941  0.78206932  0.83253279    -0.27300
H389        H  0.91072048  0.83009334  0.69564252     0.11700
H390        H  0.91164166  0.76268623  0.62898518     0.12800
H391        H  0.08900671  0.69669397  0.83202283     0.11900
H392        H  0.09253955  0.63111162  0.76358791     0.11100
H393        H  0.06351988  0.59861212  0.67914838     0.16500
H394        H  0.94451480  0.67979682  0.59608440     0.12400
H395        H  0.94262731  0.86472337  0.77809842     0.15300
H396        H  0.05377776  0.77826459  0.86654538     0.15100
C397        C  0.01711919  0.65544553  0.22785191    -0.17800
C398        C  0.01611942  0.69288771  0.18909515    -0.20000
C399        C  0.99453396  0.74163523  0.19879290     0.20700
C400        C  0.97164515  0.75223790  0.24728686    -0.02900
C401        C  0.97164455  0.71385077  0.28619226    -0.06000
C402        C  0.99579836  0.66586044  0.27665143     0.21000
C403        C  0.94914016  0.72396423  0.33496501     0.19100
C404        C  0.92624298  0.77253210  0.34403692    -0.17400
C405        C  0.92713770  0.81106839  0.30569631    -0.19700
C406        C  0.95047107  0.80156882  0.25738037     0.20600
C407        C  0.95458095  0.84064696  0.21948810    -0.32700
C408        C  0.97902348  0.83039352  0.17161563     0.01300
C409        C  0.99732242  0.78036849  0.16126064    -0.24000
C410        C  0.99959095  0.62937326  0.31629385    -0.28600
C411        C  0.97727123  0.63837614  0.36510403     0.07000
C412        C  0.95099909  0.68563942  0.37381990    -0.27300
H413        H  0.03526159  0.61850299  0.21985921     0.11700
H414        H  0.03357854  0.68418920  0.15192837     0.12800
H415        H  0.90866020  0.78111973  0.38116839     0.11900
H416        H  0.91028432  0.84853371  0.31411792     0.11100
H417        H  0.93933870  0.87893588  0.22736220     0.16500
H418        H  0.01593582  0.77203802  0.12452898     0.12400
H419        H  0.02063498  0.59377303  0.30925797     0.15300
H420        H  0.93308579  0.69294921  0.41108199     0.15100
C421        C  0.94322589  0.24005379  0.33769204    -0.17800
C422        C  0.94424678  0.20099845  0.30021464    -0.20000
C423        C  0.97302057  0.20743043  0.25446653     0.20700
C424        C  0.00132703  0.25357958  0.24655374    -0.02900
C425        C  0.00088680  0.29271714  0.28473744    -0.06000
C426        C  0.97138349  0.28600077  0.33033718     0.21000
C427        C  0.02993192  0.33850053  0.27726768     0.19100
C428        C  0.05893060  0.34477532  0.23163814    -0.17400
C429        C  0.05876323  0.30633010  0.19348668    -0.19700
C430        C  0.02998308  0.26069383  0.20047323     0.20600
C431        C  0.02929885  0.22211788  0.16220222    -0.32700
C432        C  0.00134974  0.17595083  0.16989219     0.01300
C433        C  0.97375014  0.16868289  0.21639476    -0.24000
C434        C  0.97086321  0.32514331  0.36793780    -0.28600
C435        C  0.00046920  0.37041220  0.36124652     0.07000
C436        C  0.02967442  0.37698336  0.31567238    -0.27300
H437        H  0.92054563  0.23422525  0.37256986     0.11700
H438        H  0.92227255  0.16583865  0.30689765     0.12800
H439        H  0.08157912  0.37956636  0.22533055     0.11900
H440        H  0.08121384  0.31228594  0.15848318     0.11100
H441        H  0.05113010  0.22765487  0.12671018     0.16500
H442        H  0.95196528  0.13325906  0.22247166     0.12400
H443        H  0.94808635  0.32021014  0.40292623     0.15300
H444        H  0.05254531  0.41185409  0.31051367     0.15100
loop_ 
_geom_bond_atom_site_label_1 
_geom_bond_atom_site_label_2 
_geom_bond_distance 
_geom_bond_site_symmetry_2 
_ccdc_geom_bond_type 
N1            C6   1.357       .  A
N1            C5   1.355       .  A
N1           H33   1.041   1_655  S
N2            C9   1.351       .  A
N2           C10   1.353       .  A
N3            C8   1.353       .  A
N3            C7   1.356       .  A
N3           H34   1.042       .  S
N4           C11   1.353       .  A
N4           C12   1.350   1_655  A
C5           C13   1.386       .  A
C5           C21   1.418   1_655  A
C6           C22   1.422       .  A
C6           C14   1.387       .  A
C7           C15   1.386   1_455  A
C7           C24   1.416       .  A
C8           C23   1.415       .  A
C8           C16   1.387   1_455  A
C9           C21   1.415       .  A
C9           C17   1.388       .  A
C10          C24   1.413       .  A
C10          C18   1.385       .  A
C11          C19   1.386   1_655  A
C11          C22   1.414       .  A
C12          C20   1.386       .  A
C12          C23   1.412       .  A
C13          C14   1.377       .  A
C13          H25   1.082       .  S
C14          H26   1.082       .  S
C15          C16   1.374       .  A
C15          H27   1.082       .  S
C16          H28   1.082       .  S
C17          C18   1.374       .  A
C17          H29   1.082       .  S
C18          H30   1.082       .  S
C19          C20   1.373       .  A
C19          H31   1.082       .  S
C20          H32   1.082       .  S
C21         C435   1.493       .  S
C22         C411   1.504       .  S
C23         C384   1.491       .  S
C24         C363   1.496       .  S
O35          C46   1.293       .  A
O35         Eu71   2.471   1_554  S
O36          C47   1.294       .  A
O36         Eu70   2.466   1_554  S
O37          C48   1.292       .  A
O37         Eu43   2.465       .  S
O38          C49   1.294       .  A
O38         Eu43   2.473   1_465  S
O39          C49   1.293       .  A
O39         Eu73   2.466   1_554  S
O40          C48   1.291   1_565  A
O40         Eu72   2.457   1_564  S
O41          C47   1.291       .  A
O41         Eu43   2.459   1_565  S
O42          C46   1.291   1_655  A
O42         Eu43   2.458       .  S
Eu43         O53   2.358   1_655  S
Eu43         O45   2.355       .  S
Eu43         O44   2.362   1_645  S
Eu43         O51   2.347   1_545  S
O44         Eu73   2.352   1_554  S
O44         Eu70   2.352   1_454  S
O45         Eu71   2.358   1_654  S
O45         Eu72   2.356   1_554  S
C46         C432   1.481       .  S
C47         C408   1.481       .  S
C48         C336   1.478   1_545  S
C49         C315   1.487       .  S
H50          O51   0.965       .  S
O51         Eu72   2.336   1_564  S
O51         Eu70   2.349   1_554  S
H52          O53   0.966       .  S
O53         Eu71   2.360   1_554  S
O53         Eu73   2.359   1_544  S
O54          C77   1.290   1_455  A
O54         Eu70   2.453   1_455  S
O55          C78   1.293       .  A
O55         Eu71   2.472       .  S
O56          C79   1.292       .  A
O56         Eu72   2.461   1_565  S
O57          C80   1.293       .  A
O57         Eu73   2.469   1_554  S
O58          C81   1.293       .  A
O58         Eu73   2.466   1_545  S
O59          C82   1.291   1_554  A
O59         Eu72   2.457   1_554  S
O60          C83   1.292       .  A
O60         Eu74   2.464       .  S
O61          C84   1.291       .  A
O61         Eu74   2.454   1_465  S
O62          C83   1.289       .  A
O62         Eu72   2.446       .  S
O63          C84   1.292       .  A
O63         Eu73   2.459       .  S
O64          C79   1.288       .  A
O64         Eu70   2.440       .  S
O65          C82   1.292       .  A
O65         Eu71   2.463   1_655  S
O66          C81   1.291       .  A
O66         Eu71   2.453       .  S
O67          C80   1.292       .  A
O67         Eu70   2.467   1_454  S
O68          C77   1.292       .  A
O68         Eu74   2.466   1_565  S
O69          C78   1.292       .  A
O69         Eu74   2.464   1_455  S
Eu70         O88   2.344   1_655  S
Eu70         O76   2.361       .  S
Eu71         O75   2.347       .  S
Eu71         O86   2.353   1_455  S
Eu72         O86   2.354       .  S
Eu72         O76   2.357   1_545  S
Eu73         O75   2.356   1_565  S
Eu73         O88   2.354       .  S
Eu74         O75   2.352   1_655  S
Eu74         O86   2.351       .  S
Eu74         O88   2.363   1_645  S
Eu74         O76   2.350   1_545  S
C77         C387   1.475       .  S
C78         C360   1.481       .  S
C79         C171   1.470   1_556  S
C80         C219   1.484       .  S
C81         C243   1.484       .  S
C82         C192   1.476       .  S
C83         C264   1.472       .  S
C84         C288   1.474       .  S
H85          O86   0.965       .  S
H87          O88   0.965       .  S
N89          C94   1.351       .  A
N89          C93   1.349       .  A
N89         H121   1.040   1_545  S
N90          C97   1.354       .  A
N90          C98   1.355       .  A
N91          C96   1.354       .  A
N91          C95   1.357       .  A
N91         H122   1.042       .  S
N92          C99   1.350       .  A
N92         C100   1.348       .  A
C93         C101   1.388       .  A
C93         C109   1.410       .  A
C94         C110   1.412       .  A
C94         C102   1.388       .  A
C95         C103   1.387   1_565  A
C95         C112   1.421       .  A
C96         C111   1.419       .  A
C96         C104   1.387   1_565  A
C97         C109   1.418   1_565  A
C97         C105   1.386       .  A
C98         C112   1.419       .  A
C98         C106   1.385       .  A
C99         C107   1.386       .  A
C99         C110   1.410   1_565  A
C100        C108   1.387       .  A
C100        C111   1.411       .  A
C101        C102   1.377       .  A
C101        H113   1.082       .  S
C102        H114   1.082       .  S
C103        C104   1.377       .  A
C103        H115   1.082       .  S
C104        H116   1.082       .  S
C105        C106   1.374       .  A
C105        H117   1.082       .  S
C106        H118   1.082       .  S
C107        C108   1.374       .  A
C107        H119   1.082       .  S
C108        H120   1.082       .  S
C109        C291   1.489       .  S
C110        C267   1.485       .  S
C111        C339   1.491       .  S
C112        C312   1.510       .  S
N123        C128   1.355       .  A
N123        C127   1.355       .  A
N123        H155   1.042       .  S
N124        C131   1.351       .  A
N124        C132   1.353       .  A
N125        C130   1.353   1_554  A
N125        C129   1.354   1_554  A
N125        H156   1.042       .  S
N126        C133   1.348       .  A
N126        C134   1.349       .  A
C127        C135   1.386   1_554  A
C127        C143   1.418       .  A
C128        C144   1.420       .  A
C128        C136   1.387   1_554  A
C129        C137   1.388       .  A
C129        C146   1.419       .  A
C130        C145   1.413   1_556  A
C130        C138   1.385       .  A
C131        C143   1.413       .  A
C131        C139   1.385       .  A
C132        C146   1.417   1_554  A
C132        C140   1.387       .  A
C133        C141   1.387       .  A
C133        C144   1.410       .  A
C134        C142   1.387       .  A
C134        C145   1.409       .  A
C135        C136   1.378       .  A
C135        H147   1.082       .  S
C136        H148   1.082       .  S
C137        C138   1.378       .  A
C137        H149   1.082       .  S
C138        H150   1.082       .  S
C139        C140   1.375       .  A
C139        H151   1.082       .  S
C140        H152   1.082       .  S
C141        C142   1.374       .  A
C141        H153   1.082       .  S
C142        H154   1.082       .  S
C143        C216   1.499       .  S
C144        C168   1.493       .  S
C145        C195   1.486   1_554  S
C146        C240   1.502       .  S
C157        C158   1.397       .  A
C157        C162   1.402       .  A
C157        H173   1.083       .  S
C158        C159   1.403       .  A
C158        H174   1.083       .  S
C159        C169   1.401       .  A
C159        C160   1.412       .  A
C160        C166   1.411   1_554  A
C160        C161   1.410       .  A
C161        C163   1.412   1_554  A
C161        C162   1.412       .  A
C162        C170   1.400       .  A
C163        C172   1.402       .  A
C163        C164   1.403       .  A
C164        C165   1.399       .  A
C164        H175   1.084       .  S
C165        C166   1.404       .  A
C165        H176   1.084       .  S
C166        C167   1.403       .  A
C167        C168   1.409   1_556  A
C167        H177   1.084       .  S
C168        C169   1.405       .  A
C169        H178   1.084       .  S
C170        C171   1.403       .  A
C170        H179   1.085       .  S
C171        C172   1.405   1_554  A
C172        H180   1.085       .  S
C181        C182   1.401       .  A
C181        C186   1.404       .  A
C181        H197   1.084       .  S
C182        C183   1.404       .  A
C182        H198   1.084       .  S
C183        C193   1.405       .  A
C183        C184   1.412       .  A
C184        C190   1.412   1_556  A
C184        C185   1.411       .  A
C185        C187   1.412   1_556  A
C185        C186   1.412       .  A
C186        C194   1.405       .  A
C187        C196   1.400       .  A
C187        C188   1.402       .  A
C188        C189   1.397       .  A
C188        H199   1.084       .  S
C189        C190   1.403       .  A
C189        H200   1.084       .  S
C190        C191   1.401       .  A
C191        C192   1.405   1_554  A
C191        H201   1.085       .  S
C192        C193   1.407       .  A
C193        H202   1.084       .  S
C194        C195   1.407       .  A
C194        H203   1.084       .  S
C195        C196   1.402   1_556  A
C196        H204   1.085       .  S
C205        C206   1.401       .  A
C205        C210   1.404       .  A
C205        H221   1.083       .  S
C206        C207   1.404       .  A
C206        H222   1.083       .  S
C207        C217   1.409       .  A
C207        C208   1.413       .  A
C208        C214   1.410   1_554  A
C208        C209   1.416       .  A
C209        C211   1.413   1_554  A
C209        C210   1.411       .  A
C210        C218   1.406       .  A
C211        C220   1.408       .  A
C211        C212   1.404       .  A
C212        C213   1.400       .  A
C212        H223   1.084       .  S
C213        C214   1.404       .  A
C213        H224   1.084       .  S
C214        C215   1.403       .  A
C215        C216   1.408   1_556  A
C215        H225   1.084       .  S
C216        C217   1.409       .  A
C217        H226   1.084       .  S
C218        C219   1.407       .  A
C218        H227   1.084       .  S
C219        C220   1.408   1_554  A
C220        H228   1.085       .  S
C229        C230   1.398       .  A
C229        C234   1.403       .  A
C229        H245   1.083       .  S
C230        C231   1.403       .  A
C230        H246   1.084       .  S
C231        C241   1.401       .  A
C231        C232   1.410   1_554  A
C232        C238   1.411       .  A
C232        C233   1.413       .  A
C233        C235   1.410       .  A
C233        C234   1.412   1_556  A
C234        C242   1.403       .  A
C235        C244   1.404       .  A
C235        C236   1.405       .  A
C236        C237   1.401       .  A
C236        H247   1.084       .  S
C237        C238   1.405       .  A
C237        H248   1.083       .  S
C238        C239   1.407       .  A
C239        C240   1.411       .  A
C239        H249   1.084       .  S
C240        C241   1.408   1_556  A
C241        H250   1.084       .  S
C242        C243   1.407   1_554  A
C242        H251   1.084       .  S
C243        C244   1.410       .  A
C244        H252   1.084       .  S
C253        C254   1.397       .  A
C253        C258   1.402       .  A
C253        H269   1.084       .  S
C254        C255   1.403       .  A
C254        H270   1.084       .  S
C255        C265   1.399       .  A
C255        C256   1.412   1_565  A
C256        C262   1.412       .  A
C256        C257   1.410       .  A
C257        C259   1.412       .  A
C257        C258   1.412   1_545  A
C258        C266   1.398       .  A
C259        C268   1.403       .  A
C259        C260   1.404       .  A
C260        C261   1.400       .  A
C260        H271   1.084       .  S
C261        C262   1.404       .  A
C261        H272   1.084       .  S
C262        C263   1.403       .  A
C263        C264   1.406       .  A
C263        H273   1.085       .  S
C264        C265   1.404   1_545  A
C265        H274   1.085       .  S
C266        C267   1.403   1_565  A
C266        H275   1.085       .  S
C267        C268   1.406       .  A
C268        H276   1.084       .  S
C277        C278   1.400       .  A
C277        C282   1.405       .  A
C277        H293   1.084       .  S
C278        C279   1.404       .  A
C278        H294   1.084       .  S
C279        C289   1.403       .  A
C279        C280   1.411   1_565  A
C280        C286   1.412       .  A
C280        C281   1.410       .  A
C281        C283   1.411       .  A
C281        C282   1.412   1_545  A
C282        C290   1.405       .  A
C283        C292   1.399       .  A
C283        C284   1.402       .  A
C284        C285   1.397       .  A
C284        H295   1.084       .  S
C285        C286   1.402       .  A
C285        H296   1.083       .  S
C286        C287   1.400       .  A
C287        C288   1.404   1_545  A
C287        H297   1.085       .  S
C288        C289   1.407       .  A
C289        H298   1.084       .  S
C290        C291   1.409   1_565  A
C290        H299   1.084       .  S
C291        C292   1.403       .  A
C292        H300   1.084       .  S
C301        C302   1.403       .  A
C301        C306   1.405       .  A
C301        H317   1.083       .  S
C302        C303   1.406       .  A
C302        H318   1.083       .  S
C303        C313   1.410       .  A
C303        C304   1.411       .  A
C304        C310   1.411   1_565  A
C304        C305   1.417       .  A
C305        C307   1.412   1_565  A
C305        C306   1.412       .  A
C306        C314   1.409       .  A
C307        C316   1.406       .  A
C307        C308   1.403       .  A
C308        C309   1.400       .  A
C308        H319   1.084       .  S
C309        C310   1.404       .  A
C309        H320   1.083       .  S
C310        C311   1.406       .  A
C311        C312   1.410   1_545  A
C311        H321   1.084       .  S
C312        C313   1.413       .  A
C313        H322   1.084       .  S
C314        C315   1.410       .  A
C314        H323   1.084       .  S
C315        C316   1.407   1_565  A
C316        H324   1.084       .  S
C325        C326   1.400       .  A
C325        C330   1.403       .  A
C325        H341   1.084       .  S
C326        C327   1.404       .  A
C326        H342   1.083       .  S
C327        C337   1.405       .  A
C327        C328   1.412       .  A
C328        C334   1.412   1_565  A
C328        C329   1.412       .  A
C329        C331   1.411   1_565  A
C329        C330   1.412       .  A
C330        C338   1.403       .  A
C331        C340   1.401       .  A
C331        C332   1.403       .  A
C332        C333   1.398       .  A
C332        H343   1.084       .  S
C333        C334   1.403       .  A
C333        H344   1.084       .  S
C334        C335   1.402       .  A
C335        C336   1.405   1_545  A
C335        H345   1.085       .  S
C336        C337   1.408       .  A
C337        H346   1.084       .  S
C338        C339   1.406       .  A
C338        H347   1.084       .  S
C339        C340   1.408   1_565  A
C340        H348   1.084       .  S
C349        C350   1.401       .  A
C349        C354   1.404       .  A
C349        H365   1.083       .  S
C350        C351   1.404       .  A
C350        H366   1.084       .  S
C351        C361   1.406       .  A
C351        C352   1.412       .  A
C352        C358   1.412   1_455  A
C352        C353   1.415       .  A
C353        C355   1.412   1_455  A
C353        C354   1.412       .  A
C354        C362   1.407       .  A
C355        C364   1.404       .  A
C355        C356   1.404       .  A
C356        C357   1.400       .  A
C356        H367   1.084       .  S
C357        C358   1.404       .  A
C357        H368   1.084       .  S
C358        C359   1.406       .  A
C359        C360   1.407   1_655  A
C359        H369   1.085       .  S
C360        C361   1.407       .  A
C361        H370   1.085       .  S
C362        C363   1.408       .  A
C362        H371   1.084       .  S
C363        C364   1.406   1_455  A
C364        H372   1.084       .  S
C373        C374   1.398       .  A
C373        C378   1.403       .  A
C373        H389   1.084       .  S
C374        C375   1.403       .  A
C374        H390   1.084       .  S
C375        C385   1.401       .  A
C375        C376   1.411   1_655  A
C376        C382   1.412       .  A
C376        C377   1.411       .  A
C377        C379   1.412       .  A
C377        C378   1.412   1_455  A
C378        C386   1.402       .  A
C379        C388   1.403       .  A
C379        C380   1.404       .  A
C380        C381   1.399       .  A
C380        H391   1.084       .  S
C381        C382   1.403       .  A
C381        H392   1.084       .  S
C382        C383   1.402       .  A
C383        C384   1.406       .  A
C383        H393   1.084       .  S
C384        C385   1.407   1_455  A
C385        H394   1.084       .  S
C386        C387   1.404       .  A
C386        H395   1.084       .  S
C387        C388   1.406   1_655  A
C388        H396   1.085       .  S
C397        C398   1.394       .  A
C397        C402   1.401   1_455  A
C397        H413   1.083       .  S
C398        C399   1.400   1_455  A
C398        H414   1.084       .  S
C399        C409   1.396       .  A
C399        C400   1.411       .  A
C400        C406   1.412       .  A
C400        C401   1.413       .  A
C401        C403   1.411       .  A
C401        C402   1.410       .  A
C402        C410   1.397       .  A
C403        C412   1.412       .  A
C403        C404   1.407       .  A
C404        C405   1.405       .  A
C404        H415   1.084       .  S
C405        C406   1.407       .  A
C405        H416   1.084       .  S
C406        C407   1.411       .  A
C407        C408   1.412       .  A
C407        H417   1.084       .  S
C408        C409   1.402       .  A
C409        H418   1.084   1_655  S
C410        C411   1.405       .  A
C410        H419   1.084   1_655  S
C411        C412   1.415       .  A
C412        H420   1.084       .  S
C421        C422   1.400       .  A
C421        C426   1.404       .  A
C421        H437   1.084       .  S
C422        C423   1.404       .  A
C422        H438   1.084       .  S
C423        C433   1.404       .  A
C423        C424   1.412   1_655  A
C424        C430   1.412       .  A
C424        C425   1.414       .  A
C425        C427   1.412       .  A
C425        C426   1.412   1_455  A
C426        C434   1.403       .  A
C427        C436   1.406       .  A
C427        C428   1.404       .  A
C428        C429   1.400       .  A
C428        H439   1.083       .  S
C429        C430   1.404       .  A
C429        H440   1.084       .  S
C430        C431   1.405       .  A
C431        C432   1.407       .  A
C431        H441   1.084       .  S
C432        C433   1.408   1_455  A
C433        H442   1.085       .  S
C434        C435   1.406   1_655  A
C434        H443   1.084       .  S
C435        C436   1.406       .  A
C436        H444   1.084       .  S
