geometry optimzed in LAMMPS
_audit_creation_date              2020-11-30 
_audit_creation_method            'lammps2cif' 
_symmetry_space_group_name_H-M    'P1' 
_symmetry_Int_Tables_number       1 
_symmetry_cell_setting            triclinic 
loop_ 
_symmetry_equiv_pos_as_xyz 
  x,y,z 
_cell_length_a                    36.58087671 
_cell_length_b                    36.578779470092414 
_cell_length_c                    61.245803520850586 
_cell_angle_alpha                 90.29234275829883 
_cell_angle_beta                  89.89029217707501 
_cell_angle_gamma                 89.84323224017965 
loop_ 
_atom_site_label 
_atom_site_type_symbol 
_atom_site_fract_x 
_atom_site_fract_y 
_atom_site_fract_z 
_atom_site_charge 
In1        In  0.91388033  0.38051739  0.57117965     1.36900
C2          C  0.89819835  0.36108557  0.53037092     0.78500
O3          O  0.88276195  0.43354969  0.56617378    -0.60000
O4          O  0.93101145  0.43440950  0.58533307    -0.50900
C5          C  0.88378466  0.33880495  0.60203656     0.71100
O6          O  0.90053778  0.32587398  0.58579351    -0.45700
C7          C  0.98657085  0.37795171  0.57232646     0.75800
O8          O  0.87719218  0.38157832  0.54132188    -0.57600
O9          O  0.96885955  0.39068623  0.55647540    -0.47700
O10         O  0.92397411  0.34723165  0.54109021    -0.54000
C11         C  0.90563112  0.45248653  0.57666871     0.86000
O12         O  0.87901876  0.37284916  0.60126686    -0.55900
O13         O  0.96719153  0.36648495  0.58790836    -0.59200
C14         C  0.80650472  0.35309990  0.84489093     0.87400
C15         C  0.76902194  0.33465535  0.84252650    -0.52900
C16         C  0.75230634  0.34033438  0.82289039     0.10300
C17         C  0.77488668  0.36442675  0.80712579     0.21200
C18         C  0.82774715  0.33766583  0.82513391    -0.53600
C19         C  0.81202663  0.34396904  0.80522701     0.10400
C20         C  0.79984178  0.39333291  0.83973266    -0.53100
C21         C  0.78333579  0.39965034  0.82021588     0.11000
H22         H  0.75837804  0.31510038  0.85417562     0.15500
H23         H  0.76106520  0.37012434  0.79141674     0.01200
H24         H  0.85164387  0.32036303  0.82695096     0.15800
H25         H  0.80739321  0.41532179  0.85083505     0.15600
C26         C  0.63097230  0.17674962  0.84371892     0.87400
C27         C  0.64785422  0.15624604  0.82406969    -0.52900
C28         C  0.64149020  0.17188251  0.80410042     0.10300
C29         C  0.61951938  0.20816333  0.80590570     0.21200
C30         C  0.64788690  0.21500402  0.84166568    -0.53600
C31         C  0.64219603  0.23160861  0.82201990     0.10400
C32         C  0.59066412  0.18169976  0.83799466    -0.53100
C33         C  0.58429689  0.19812727  0.81849173     0.11000
H34         H  0.66573041  0.13282397  0.82604918     0.15500
H35         H  0.61368215  0.22190373  0.79020548     0.01200
H36         H  0.66728233  0.22602016  0.85333535     0.15800
H37         H  0.56864540  0.17343721  0.84882947     0.15600
C38         C  0.71206517  0.10183710  0.68571155     0.87400
C39         C  0.69254936  0.11967006  0.70531675    -0.52900
C40         C  0.70776449  0.11218618  0.72509615     0.10300
C41         C  0.74226932  0.08793401  0.72368919     0.21200
C42         C  0.75165740  0.11565556  0.68791914    -0.53600
C43         C  0.76752773  0.10875395  0.70773644     0.10400
C44         C  0.71441604  0.06105110  0.69131373    -0.53100
C45         C  0.72984880  0.05349469  0.71102295     0.11000
H46         H  0.66833620  0.13670654  0.70368803     0.15500
H47         H  0.75489077  0.08210830  0.73978187     0.01200
H48         H  0.76537025  0.13291904  0.67628190     0.15800
H49         H  0.70381810  0.03971588  0.68067199     0.15600
C50         C  0.88197885  0.27168242  0.68717704     0.87400
C51         C  0.86845369  0.23248643  0.68970976    -0.52900
C52         C  0.87544897  0.21692867  0.70948721     0.10300
C53         C  0.89650366  0.24249918  0.72534175     0.21200
C54         C  0.86518377  0.29247143  0.70678830    -0.53600
C55         C  0.87249510  0.27720318  0.72661781     0.10400
C56         C  0.92280930  0.27016559  0.69279756    -0.53100
C57         C  0.93082517  0.25509475  0.71256397     0.11000
H58         H  0.85248167  0.21884979  0.67714582     0.15500
H59         H  0.90247321  0.23022032  0.74149679     0.01200
H60         H  0.85009743  0.31780971  0.70596532     0.15800
H61         H  0.94384483  0.28121490  0.68217064     0.15600
In62       In  0.59253301  0.07112548  0.96386158     1.36900
C63         C  0.60818977  0.08895690  0.00491406     0.78500
O64         O  0.53884035  0.09761591  0.95439364    -0.60000
O65         O  0.53813543  0.05063210  0.97459578    -0.50900
C66         C  0.61992735  0.10405112  0.92826208     0.71100
O67         O  0.61719298  0.12034199  0.94641338    -0.45700
C68         C  0.60300879  0.99981049  0.96034633     0.75800
O69         O  0.58263592  0.10369949  0.99439887    -0.57600
O70         O  0.57549812  0.01611346  0.95277738    -0.47700
O71         O  0.62965880  0.06972280  0.99348839    -0.54000
C72         C  0.51998240  0.07460583  0.96472678     0.86000
O73         O  0.61136063  0.07090464  0.92910453    -0.55900
O74         O  0.62714617  0.02031666  0.96862124    -0.59200
In75       In  0.59475389  0.07570778  0.56987384     1.36900
C76         C  0.61133670  0.09335379  0.52908033     0.78500
O77         O  0.61700278  0.02276356  0.58355146    -0.60000
O78         O  0.58145986  0.02034495  0.55627858    -0.50900
C79         C  0.62928626  0.10343008  0.60446498     0.71100
O80         O  0.64484263  0.10035742  0.58612745    -0.45700
C81         C  0.52344309  0.08452920  0.57474580     0.75800
O82         O  0.62968595  0.07040905  0.53977102    -0.57600
O83         O  0.54036607  0.05594043  0.57999098    -0.47700
O84         O  0.58867640  0.11154338  0.54025673    -0.54000
C85         C  0.59980351  0.00299868  0.57018093     0.86000
O86         O  0.59575620  0.09632094  0.60410111    -0.55900
O87         O  0.54324172  0.11025379  0.56780002    -0.59200
In88       In  0.91491953  0.38633375  0.96406907     1.36900
C89         C  0.89381561  0.36888981  0.00416777     0.78500
O90         O  0.96702173  0.35408656  0.96943302    -0.60000
O91         O  0.96901058  0.40482999  0.95252770    -0.50900
C92         C  0.88063928  0.35882731  0.92915089     0.71100
O93         O  0.86395296  0.36703926  0.94652353    -0.45700
C94         C  0.91260800  0.45889639  0.96516633     0.75800
O95         O  0.87902268  0.39406528  0.99336793    -0.57600
O96         O  0.89506381  0.44055914  0.95122368    -0.47700
O97         O  0.91537811  0.34876933  0.99333997    -0.54000
C98         C  0.98642831  0.37863900  0.96077178     0.86000
O99         O  0.91479470  0.36106900  0.93067947    -0.55900
O100        O  0.93057706  0.44022203  0.97859808    -0.59200
C101        C  0.79812438  0.35440625  0.18784296     0.87400
C102        C  0.81868579  0.33776508  0.20749375    -0.52900
C103        C  0.80279783  0.34390184  0.22753407     0.10300
C104        C  0.76624377  0.36537094  0.22574083     0.21200
C105        C  0.76015918  0.33694634  0.18981272    -0.53600
C106        C  0.74329415  0.34209364  0.20953028     0.10400
C107        C  0.79254126  0.39463686  0.19369343    -0.53100
C108        C  0.77604943  0.40087440  0.21328143     0.11000
H109        H  0.84178159  0.31947548  0.20557242     0.15500
H110        H  0.75226924  0.37108115  0.24145699     0.01200
H111        H  0.74933588  0.31827763  0.17759413     0.15800
H112        H  0.80117294  0.41673955  0.18308101     0.15600
C113        C  0.62624296  0.17537190  0.18833073     0.87400
C114        C  0.64017283  0.21458675  0.19053004    -0.52900
C115        C  0.63470388  0.23049834  0.21046314     0.10300
C116        C  0.61391226  0.20542316  0.22671526     0.21200
C117        C  0.64438218  0.15530142  0.20772929    -0.53600
C118        C  0.63776085  0.17032809  0.22791468     0.10400
C119        C  0.58573087  0.17729472  0.19474956    -0.53100
C120        C  0.57879226  0.19302298  0.21455092     0.11000
H121        H  0.65682577  0.22731089  0.17797731     0.15500
H122        H  0.60790856  0.21853449  0.24268527     0.01200
H123        H  0.66220686  0.13209477  0.20627897     0.15800
H124        H  0.56401087  0.16702606  0.18432247     0.15600
C125        C  0.70410207  0.09946816  0.34659759     0.87400
C126        C  0.74278142  0.11563734  0.34447233    -0.52900
C127        C  0.76014759  0.10787465  0.32515360     0.10300
C128        C  0.73686389  0.08443084  0.30933703     0.21200
C129        C  0.68454636  0.11483025  0.32638579    -0.53600
C130        C  0.70113062  0.10706764  0.30689927     0.10400
C131        C  0.70899909  0.05858444  0.34198968    -0.53100
C132        C  0.72631255  0.05018991  0.32287598     0.11000
H133        H  0.75431427  0.13513335  0.35587256     0.15500
H134        H  0.75080712  0.07813579  0.29363756     0.01200
H135        H  0.66021972  0.13184242  0.32740403     0.15800
H136        H  0.70062917  0.03770193  0.35351780     0.15600
C137        C  0.87678412  0.27305842  0.34556349     0.87400
C138        C  0.85871563  0.29398556  0.32649949    -0.52900
C139        C  0.86385504  0.27817983  0.30642499     0.10300
C140        C  0.88711972  0.24273747  0.30703793     0.21200
C141        C  0.86184083  0.23418995  0.34349343    -0.53600
C142        C  0.86676059  0.21803431  0.32354135     0.10400
C143        C  0.91696354  0.27023658  0.33860364    -0.53100
C144        C  0.92282615  0.25411910  0.31883756     0.11000
H145        H  0.84427203  0.31965403  0.32784104     0.15500
H146        H  0.89155296  0.22979607  0.29080506     0.01200
H147        H  0.84683513  0.22114012  0.35663888     0.15800
H148        H  0.93938589  0.27944043  0.34886175     0.15600
In149      In  0.59140866  0.06861953  0.06951756     1.36900
C150        C  0.60770790  0.08811421  0.02887701     0.78500
O151        O  0.62290975  0.01599022  0.06432273    -0.60000
O152        O  0.57503259  0.01508043  0.08399411    -0.50900
C153        C  0.61944431  0.10926257  0.10181697     0.71100
O154        O  0.60234589  0.12294190  0.08601477    -0.45700
C155        C  0.51908258  0.06794298  0.07000985     0.75800
O156        O  0.58155051  0.10182215  0.03950030    -0.57600
O157        O  0.53754861  0.05418691  0.05466005    -0.47700
O158        O  0.62899987  0.06843914  0.03999486    -0.54000
C159        C  0.60032117  0.99710934  0.07502037     0.86000
O160        O  0.62529434  0.07550099  0.09981714    -0.55900
O161        O  0.53751310  0.08241747  0.08510367    -0.59200
In162      In  0.91374388  0.37563887  0.46545078     1.36900
C163        C  0.89787382  0.35917383  0.50647787     0.78500
O164        O  0.96812480  0.39319977  0.47783599    -0.60000
O165        O  0.96724891  0.35309190  0.45264420    -0.50900
C166        C  0.88547721  0.33717179  0.43238896     0.71100
O167        O  0.89867611  0.32226093  0.44910629    -0.45700
C168        C  0.90534807  0.44723998  0.46116929     0.75800
O169        O  0.87585327  0.37701023  0.49481319    -0.57600
O170        O  0.93075718  0.42960801  0.45195469    -0.47700
O171        O  0.92403963  0.34484243  0.49620994    -0.54000
C172        C  0.98614387  0.37230000  0.46548276     0.86000
O173        O  0.88334117  0.37143619  0.43369024    -0.55900
O174        O  0.88205369  0.42788718  0.47099952    -0.59200
In175      In  0.90830997  0.38598932  0.06914292     1.36900
C176        C  0.89205664  0.36861560  0.02811388     0.78500
O177        O  0.92031300  0.44035834  0.05420180    -0.60000
O178        O  0.89486515  0.43987280  0.08538482    -0.50900
C179        C  0.86892547  0.35856705  0.10201403     0.71100
O180        O  0.85439252  0.37555574  0.08641548    -0.45700
C181        C  0.98002815  0.37915509  0.07480839     0.75800
O182        O  0.87538219  0.39326934  0.03857213    -0.57600
O183        O  0.96148371  0.40480708  0.08293970    -0.47700
O184        O  0.91243571  0.34867135  0.03961143    -0.54000
C185        C  0.90793408  0.45863767  0.07004973     0.86000
O186        O  0.90220879  0.35133096  0.09902661    -0.55900
O187        O  0.96165735  0.35502698  0.06497686    -0.59200
In188      In  0.59181829  0.07144162  0.46527065     1.36900
C189        C  0.61050779  0.09273727  0.50512711     0.78500
O190        O  0.53921646  0.10483948  0.46663988    -0.60000
O191        O  0.53727331  0.04821619  0.45869260    -0.50900
C192        C  0.62512729  0.09800047  0.42967268     0.71100
O193        O  0.64108587  0.09576043  0.44787743    -0.45700
C194        C  0.59866149  0.99887540  0.46721400     0.75800
O195        O  0.62950754  0.07041196  0.49418844    -0.57600
O196        O  0.58473110  0.01781162  0.48227416    -0.47700
O197        O  0.58589666  0.10885410  0.49442178    -0.54000
C198        C  0.51977551  0.07720601  0.46237368     0.86000
O199        O  0.59181072  0.08990146  0.43048463    -0.55900
O200        O  0.61061253  0.01702972  0.45129321    -0.59200
C201        C  0.87946416  0.67730758  0.69140767     0.87400
C202        C  0.86098115  0.65846193  0.71095337    -0.52900
C203        C  0.86707051  0.67509069  0.73055001     0.10300
C204        C  0.88992626  0.71035626  0.72905943     0.21200
C205        C  0.86371862  0.71627298  0.69263427    -0.53600
C206        C  0.86904847  0.73375315  0.71219532     0.10400
C207        C  0.91967797  0.68128461  0.69785988    -0.53100
C208        C  0.92546771  0.69848864  0.71736876     0.11000
H209        H  0.84315991  0.63494242  0.70971033     0.15500
H210        H  0.89433858  0.72417331  0.74502492     0.01200
H211        H  0.84710482  0.72809124  0.67979011     0.15800
H212        H  0.94197715  0.67118697  0.68772401     0.15600
C213        C  0.70619069  0.85123979  0.68935814     0.87400
C214        C  0.74597981  0.83792463  0.69094887    -0.52900
C215        C  0.76241865  0.84469154  0.71061126     0.10300
C216        C  0.73720398  0.86478829  0.72710961     0.21200
C217        C  0.68773550  0.83216037  0.70886234    -0.53600
C218        C  0.70338059  0.83958971  0.72861899     0.10400
C219        C  0.70735444  0.89170970  0.69552164    -0.53100
C220        C  0.72350309  0.89924697  0.71499574     0.11000
H221        H  0.75862717  0.82007624  0.67891545     0.15500
H222        H  0.75036081  0.87065206  0.74306916     0.01200
H223        H  0.66445782  0.81400653  0.70727357     0.15800
H224        H  0.69676066  0.91305759  0.68496585     0.15600
C225        C  0.62986900  0.77767396  0.84826310     0.87400
C226        C  0.64512216  0.73863708  0.84644387    -0.52900
C227        C  0.63923027  0.72177330  0.82679789     0.10300
C228        C  0.61727939  0.74578319  0.81057766     0.21200
C229        C  0.64771849  0.79674248  0.82852932    -0.53600
C230        C  0.64068019  0.78089880  0.80863109     0.10400
C231        C  0.58939981  0.77457205  0.84254277    -0.53100
C232        C  0.58231009  0.75808761  0.82305467     0.11000
H233        H  0.66401145  0.72733546  0.85830672     0.15500
H234        H  0.61104211  0.73197708  0.79487108     0.01200
H235        H  0.66670011  0.81924581  0.83030731     0.15800
H236        H  0.56780178  0.78483181  0.85315900     0.15600
C237        C  0.80396830  0.59963945  0.84861106     0.87400
C238        C  0.82463366  0.61590418  0.82899712    -0.52900
C239        C  0.80859777  0.60976450  0.80911895     0.10300
C240        C  0.77224851  0.58847937  0.81083450     0.21200
C241        C  0.76596577  0.61731016  0.84660622    -0.53600
C242        C  0.74925732  0.61184397  0.82692537     0.10400
C243        C  0.79846348  0.55935634  0.84289967    -0.53100
C244        C  0.78205539  0.55316250  0.82332014     0.11000
H245        H  0.84869169  0.63289554  0.83090087     0.15500
H246        H  0.75849473  0.58293512  0.79504683     0.01200
H247        H  0.75537254  0.63722870  0.85818908     0.15800
H248        H  0.80691585  0.53727710  0.85359145     0.15600
In249      In  0.91255196  0.56441491  0.57296389     1.36900
C250        C  0.89383578  0.58050642  0.53244466     0.78500
O251        O  0.96622334  0.58969173  0.58341008    -0.60000
O252        O  0.96697756  0.54631849  0.56032149    -0.50900
C253        C  0.88510166  0.60113464  0.60726820     0.71100
O254        O  0.89276899  0.61652895  0.58949868    -0.45700
C255        C  0.90523484  0.49259749  0.57726395     0.75800
O256        O  0.91861132  0.59723368  0.54255746    -0.57600
O257        O  0.93078910  0.51045771  0.58603712    -0.47700
O258        O  0.87418270  0.56018317  0.54413640    -0.54000
C259        C  0.98510691  0.56854756  0.57161385     0.86000
O260        O  0.88773012  0.56688855  0.60644833    -0.55900
O261        O  0.88143093  0.51179918  0.56769284    -0.59200
In262      In  0.59371396  0.89056931  0.57340582     1.36900
C263        C  0.61041021  0.86929548  0.53333406     0.78500
O264        O  0.54026670  0.86125292  0.56921228    -0.60000
O265        O  0.54079195  0.91127245  0.58714703    -0.50900
C266        C  0.62982864  0.85979949  0.60644116     0.71100
O267        O  0.64585522  0.87136410  0.58963364    -0.45700
C268        C  0.59926570  0.96307253  0.57116549     0.75800
O269        O  0.62966656  0.89177914  0.54381328    -0.57600
O270        O  0.58287401  0.94414141  0.55708313    -0.47700
O271        O  0.58643615  0.85317741  0.54447387    -0.54000
C272        C  0.52210235  0.88566999  0.57907439     0.86000
O273        O  0.59558239  0.86079862  0.60518666    -0.55900
O274        O  0.61347659  0.94501056  0.58645382    -0.59200
In275      In  0.59737597  0.88872075  0.96686941     1.36900
C276        C  0.61683774  0.87008396  0.00697512     0.78500
O277        O  0.62859354  0.94170715  0.97064629    -0.60000
O278        O  0.57813271  0.94136350  0.95328746    -0.50900
C279        C  0.62569654  0.85226874  0.93274808     0.71100
O280        O  0.61389464  0.83640139  0.94952662    -0.45700
C281        C  0.52452874  0.88601092  0.96873857     0.75800
O282        O  0.59508314  0.85126520  0.99573062    -0.57600
O283        O  0.54335447  0.90358828  0.98235977    -0.47700
O284        O  0.63320583  0.89480319  0.99658894    -0.54000
C285        C  0.60408640  0.95991534  0.96100273     0.86000
O286        O  0.62682296  0.88645839  0.93464270    -0.55900
O287        O  0.54284012  0.86931996  0.95436697    -0.59200
In288      In  0.91639305  0.57123756  0.96619732     1.36900
C289        C  0.89637612  0.58837393  0.00649813     0.78500
O290        O  0.93043176  0.51638373  0.97992654    -0.60000
O291        O  0.89731532  0.51805791  0.95151611    -0.50900
C292        C  0.88008949  0.59782051  0.93223207     0.71100
O293        O  0.86407516  0.58853895  0.94955707    -0.45700
C294        C  0.98792089  0.58052432  0.96230207     0.75800
O295        O  0.88124758  0.56341735  0.99562197    -0.57600
O296        O  0.97110504  0.55366141  0.95429089    -0.47700
O297        O  0.91757294  0.60856389  0.99570756    -0.54000
C298        C  0.91317449  0.49873460  0.96558908     0.86000
O299        O  0.91434342  0.59815773  0.93363894    -0.55900
O300        O  0.96790515  0.60437643  0.97137480    -0.59200
C301        C  0.88247202  0.66490028  0.35010782     0.87400
C302        C  0.86210649  0.70145751  0.34924251    -0.52900
C303        C  0.86698203  0.72066825  0.33053539     0.10300
C304        C  0.89167317  0.70119722  0.31367232     0.21200
C305        C  0.87017098  0.64416027  0.32937651    -0.53600
C306        C  0.87299919  0.66337806  0.31021803     0.10400
C307        C  0.92233967  0.67408467  0.34506543    -0.53100
C308        C  0.92774325  0.69282317  0.32614481     0.11000
H309        H  0.84436017  0.71106382  0.36233637     0.15500
H310        H  0.89563868  0.71809037  0.29896878     0.01200
H311        H  0.86231240  0.61592344  0.32924212     0.15800
H312        H  0.94479488  0.66599530  0.35560594     0.15600
C313        C  0.70678322  0.85224458  0.35332861     0.87400
C314        C  0.68400418  0.84159844  0.33310058    -0.52900
C315        C  0.70204811  0.84354222  0.31346691     0.10300
C316        C  0.74116278  0.85965367  0.31606861     0.21200
C317        C  0.74197469  0.82995915  0.35154320    -0.53600
C318        C  0.76014579  0.83364150  0.33229843     0.10400
C319        C  0.71787594  0.89162755  0.34831286    -0.53100
C320        C  0.73565304  0.89610927  0.32892886     0.11000
H321        H  0.65504599  0.83645363  0.33383649     0.15500
H322        H  0.75733784  0.86269957  0.30095077     0.01200
H323        H  0.75132784  0.81179780  0.36438149     0.15800
H324        H  0.71061731  0.91458637  0.35880633     0.15600
C325        C  0.80378007  0.59964945  0.18811716     0.87400
C326        C  0.76743753  0.62016511  0.18983396    -0.52900
C327        C  0.74964371  0.61633354  0.20922369     0.10300
C328        C  0.77003395  0.59151545  0.22555121     0.21200
C329        C  0.82612335  0.61218069  0.20813885    -0.53600
C330        C  0.80843404  0.60942361  0.22787522     0.10400
C331        C  0.79490430  0.55984556  0.19364959    -0.53100
C332        C  0.77729208  0.55503724  0.21303586     0.11000
H333        H  0.75730877  0.63774342  0.17691729     0.15500
H334        H  0.75423998  0.58810335  0.24079289     0.01200
H335        H  0.85464631  0.61933069  0.20718660     0.15800
H336        H  0.80293384  0.53693674  0.18331877     0.15600
C337        C  0.62723380  0.78457240  0.19156662     0.87400
C338        C  0.64067868  0.80625017  0.21170478    -0.52900
C339        C  0.63774368  0.78813400  0.23132034     0.10300
C340        C  0.61879279  0.75018243  0.22872011     0.21200
C341        C  0.64706268  0.74781486  0.19281939    -0.53600
C342        C  0.64286169  0.72962756  0.21195474     0.10400
C343        C  0.58743495  0.77646718  0.19737705    -0.53100
C344        C  0.58244120  0.75827654  0.21648081     0.11000
H345        H  0.64936506  0.83430522  0.21092729     0.15500
H346        H  0.61516915  0.73401039  0.24375417     0.01200
H347        H  0.66398956  0.73729722  0.17958489     0.15800
H348        H  0.56470128  0.78396532  0.18688912     0.15600
In349      In  0.91325753  0.57108902  0.07083364     1.36900
C350        C  0.89557904  0.58812353  0.03035852     0.78500
O351        O  0.96546587  0.60183350  0.06417890    -0.60000
O352        O  0.96657045  0.55709031  0.08621641    -0.50900
C353        C  0.87344697  0.59973153  0.10293264     0.71100
O354        O  0.85942762  0.58814248  0.08547384    -0.45700
C355        C  0.90976918  0.49846606  0.07064888     0.75800
O356        O  0.88083622  0.56221427  0.04051459    -0.57600
O357        O  0.89530128  0.51755344  0.08550838    -0.47700
O358        O  0.91502474  0.60905512  0.04191345    -0.54000
C359        C  0.98434169  0.58119727  0.07617587     0.86000
O360        O  0.90776509  0.60097253  0.10268866    -0.55900
O361        O  0.92640994  0.51634578  0.05624960    -0.59200
In362      In  0.59580021  0.88500555  0.07130836     1.36900
C363        C  0.61639887  0.86889272  0.03086107     0.78500
O364        O  0.54260354  0.86957214  0.08745882    -0.60000
O365        O  0.54085976  0.89153432  0.05548762    -0.50900
C366        C  0.62466551  0.84756564  0.10437425     0.71100
O367        O  0.60943213  0.83229467  0.08833913    -0.45700
C368        C  0.60097964  0.95712959  0.07551092     0.75800
O369        O  0.59357783  0.84980675  0.04113609    -0.57600
O370        O  0.57495729  0.93902467  0.08345707    -0.47700
O371        O  0.63315506  0.89198009  0.04235648    -0.54000
C372        C  0.52322789  0.87928571  0.07152915     0.86000
O373        O  0.62936585  0.88136201  0.10199645    -0.55900
O374        O  0.62583652  0.93821060  0.06669194    -0.59200
In375      In  0.91320341  0.55869017  0.46843779     1.36900
C376        C  0.89408873  0.57858861  0.50858899     0.78500
O377        O  0.88249607  0.50576034  0.47293744    -0.60000
O378        O  0.93092523  0.50555484  0.45363724    -0.50900
C379        C  0.88410551  0.59674316  0.43564686     0.71100
O380        O  0.89886840  0.61168814  0.45191632    -0.45700
C381        C  0.98606899  0.56111349  0.46945605     0.75800
O382        O  0.91798350  0.59509181  0.49768502    -0.57600
O383        O  0.96740500  0.54441216  0.48351067    -0.47700
O384        O  0.87593800  0.55534484  0.49793893    -0.54000
C385        C  0.90552638  0.48724886  0.46213723     0.86000
O386        O  0.88075516  0.56270046  0.43738062    -0.55900
O387        O  0.96758754  0.57688421  0.45492210    -0.59200
In388      In  0.59393735  0.88624876  0.46883377     1.36900
C389        C  0.61032389  0.86856767  0.50949199     0.78500
O390        O  0.60952162  0.93909703  0.45227785    -0.60000
O391        O  0.58594128  0.94165846  0.48392069    -0.50900
C392        C  0.63407165  0.85611969  0.43728091     0.71100
O393        O  0.64782565  0.86881820  0.45452052    -0.45700
C394        C  0.52229072  0.87836815  0.46379968     0.75800
O395        O  0.62916123  0.89068892  0.49857738    -0.57600
O396        O  0.53964449  0.90587574  0.45721059    -0.47700
O397        O  0.58663361  0.85133903  0.49869322    -0.54000
C398        C  0.59866443  0.95891679  0.46789196     0.86000
O399        O  0.59971945  0.85517380  0.43734833    -0.55900
O400        O  0.54183915  0.85332221  0.47181752    -0.59200
In401      In  0.09919897  0.37801422  0.57185040     1.36900
C402        C  0.11588391  0.35775750  0.53128299     0.78500
O403        O  0.04524533  0.36637499  0.58841198    -0.60000
O404        O  0.04493403  0.38845341  0.55636321    -0.50900
C405        C  0.12985062  0.33888412  0.60346078     0.71100
O406        O  0.10721724  0.32565079  0.59020519    -0.45700
C407        C  0.10615707  0.44986633  0.57805086     0.75800
O408        O  0.09237840  0.34138040  0.54256763    -0.57600
O409        O  0.08086211  0.43135152  0.58641616    -0.47700
O410        O  0.13460743  0.38081062  0.54167417    -0.54000
C411        C  0.02654122  0.37730395  0.57241361     0.86000
O412        O  0.13978251  0.37084914  0.59894947    -0.55900
O413        O  0.12965964  0.43140472  0.56766243    -0.59200
C414        C  0.30389886  0.10576723  0.69164733     0.87400
C415        C  0.26445508  0.12012307  0.69362170    -0.52900
C416        C  0.24822967  0.11439867  0.71347744     0.10300
C417        C  0.27343025  0.09431833  0.72985499     0.21200
C418        C  0.32320470  0.12502136  0.71078457    -0.53600
C419        C  0.30793929  0.11863868  0.73069804     0.10400
C420        C  0.30186455  0.06550089  0.69807919    -0.53100
C421        C  0.28597179  0.05903224  0.71784190     0.11000
H422        H  0.25159650  0.13681092  0.68118751     0.15500
H423        H  0.26071907  0.08946182  0.74605952     0.01200
H424        H  0.34629168  0.14329902  0.70896197     0.15800
H425        H  0.31200436  0.04360068  0.68762581     0.15600
C426        C  0.13443712  0.27832033  0.69049434     0.87400
C427        C  0.15211838  0.29852730  0.70989867    -0.52900
C428        C  0.14406611  0.28400377  0.72976196     0.10300
C429        C  0.11949960  0.24976257  0.72875453     0.21200
C430        C  0.14790229  0.23890502  0.69327016    -0.53600
C431        C  0.14046422  0.22362857  0.71310034     0.10400
C432        C  0.09364312  0.27721970  0.69606932    -0.53100
C433        C  0.08537680  0.26246509  0.71585843     0.11000
H434        H  0.17083108  0.32116752  0.70889177     0.15500
H435        H  0.11329259  0.23780254  0.74496867     0.01200
H436        H  0.16429727  0.22501337  0.68093539     0.15800
H437        H  0.07269535  0.28721014  0.68501530     0.15600
C438        C  0.38410588  0.18309818  0.84779190     0.87400
C439        C  0.36679205  0.22128917  0.84664837    -0.52900
C440        C  0.37234259  0.23917889  0.82738051     0.10300
C441        C  0.39574241  0.21707856  0.81076198     0.21200
C442        C  0.36801993  0.16388150  0.82753608    -0.53600
C443        C  0.37481546  0.18070414  0.80810504     0.10400
C444        C  0.42455331  0.18890760  0.84239652    -0.53100
C445        C  0.43095124  0.20648533  0.82319169     0.11000
H446        H  0.34842523  0.23177307  0.85917882     0.15500
H447        H  0.40118093  0.23158828  0.79523544     0.01200
H448        H  0.34907330  0.14133355  0.82818217     0.15800
H449        H  0.44653492  0.17897687  0.85272139     0.15600
C450        C  0.20553810  0.36048616  0.84755846     0.87400
C451        C  0.18624975  0.34386942  0.82753277    -0.52900
C452        C  0.20328624  0.35028440  0.80799691     0.10300
C453        C  0.23937457  0.37182918  0.81044137     0.21200
C454        C  0.24381713  0.34331967  0.84620697    -0.53600
C455        C  0.26173197  0.34895815  0.82697023     0.10400
C456        C  0.21075492  0.40079614  0.84210558    -0.53100
C457        C  0.22818748  0.40710393  0.82284924     0.11000
H458        H  0.16241128  0.32643427  0.82873611     0.15500
H459        H  0.25386694  0.37725809  0.79487070     0.01200
H460        H  0.25407994  0.32408683  0.85819216     0.15800
H461        H  0.20092020  0.42280860  0.85258052     0.15600
In462      In  0.40753172  0.07117246  0.96573217     1.36900
C463        C  0.39012538  0.08589725  0.00691234     0.78500
O464        O  0.37617800  0.01880530  0.97084504    -0.60000
O465        O  0.42505171  0.01765291  0.95184765    -0.50900
C466        C  0.38100396  0.10908910  0.93215789     0.71100
O467        O  0.39036472  0.12418406  0.94979586    -0.45700
C468        C  0.48012466  0.07458163  0.96519226     0.75800
O469        O  0.41664802  0.10055169  0.99728723    -0.57600
O470        O  0.46259930  0.05080479  0.97559674    -0.47700
O471        O  0.36881234  0.06829542  0.99463704    -0.54000
C472        C  0.40006683  0.99975718  0.96107889     0.86000
O473        O  0.38070586  0.07474692  0.93299149    -0.55900
O474        O  0.46063258  0.09735460  0.95512903    -0.59200
In475      In  0.09703961  0.38885101  0.96699505     1.36900
C476        C  0.11362576  0.37077816  0.00766626     0.78500
O477        O  0.12306963  0.44196903  0.95653105    -0.60000
O478        O  0.07869586  0.44378708  0.97888894    -0.50900
C479        C  0.13075857  0.36260126  0.93170068     0.71100
O480        O  0.14732270  0.36780363  0.94948529    -0.45700
C481        C  0.02620487  0.37956266  0.96169919     0.75800
O482        O  0.12992228  0.39572123  0.99752646    -0.57600
O483        O  0.04337087  0.40687403  0.95462612    -0.47700
O484        O  0.09337578  0.35091478  0.99598215    -0.54000
C485        C  0.10172137  0.46139357  0.96788151     0.86000
O486        O  0.09678352  0.36660036  0.93303483    -0.55900
O487        O  0.04558924  0.35539657  0.97080824    -0.59200
In488      In  0.41176679  0.07877754  0.57206509     1.36900
C489        C  0.39238681  0.09475859  0.53142196     0.78500
O490        O  0.46419049  0.11138026  0.56833633    -0.60000
O491        O  0.46610567  0.05794276  0.58183237    -0.50900
C492        C  0.37509878  0.10620433  0.60610289     0.71100
O493        O  0.35928429  0.09287259  0.58965308    -0.45700
C494        C  0.40832106  0.00609386  0.57319481     0.75800
O495        O  0.37483133  0.07268342  0.54310071    -0.57600
O496        O  0.41927270  0.02347177  0.55676067    -0.47700
O497        O  0.41573725  0.11350749  0.54161152    -0.54000
C498        C  0.48359156  0.08537887  0.57538462     0.86000
O499        O  0.40895910  0.11033048  0.60358311    -0.55900
O500        O  0.39892672  0.02578873  0.58919311    -0.59200
C501        C  0.12376055  0.26484470  0.34774447     0.87400
C502        C  0.13809972  0.22560160  0.34520944    -0.52900
C503        C  0.13208348  0.21012453  0.32521491     0.10300
C504        C  0.11140384  0.23565328  0.30928719     0.21200
C505        C  0.14239814  0.28479590  0.32858118    -0.53600
C506        C  0.13536466  0.27058404  0.30824573     0.10400
C507        C  0.08330922  0.26293238  0.34161297    -0.53100
C508        C  0.07654616  0.24765959  0.32171287     0.11000
H509        H  0.15705304  0.21312860  0.35655377     0.15500
H510        H  0.10500993  0.22282023  0.29333119     0.01200
H511        H  0.16098479  0.30742229  0.33119556     0.15800
H512        H  0.06159040  0.27284338  0.35225193     0.15600
C513        C  0.29703453  0.09088313  0.34778785     0.87400
C514        C  0.31758624  0.10842988  0.32852713    -0.52900
C515        C  0.30261292  0.10217701  0.30836988     0.10300
C516        C  0.26686506  0.07941376  0.30956098     0.21200
C517        C  0.25834682  0.10691642  0.34560820    -0.53600
C518        C  0.24238532  0.10120557  0.32573897     0.10400
C519        C  0.29329480  0.05059315  0.34167480    -0.53100
C520        C  0.27763754  0.04412918  0.32192446     0.11000
H521        H  0.34124287  0.12582091  0.33091318     0.15500
H522        H  0.25383543  0.07382576  0.29355869     0.01200
H523        H  0.24652592  0.12618052  0.35712977     0.15800
H524        H  0.30262750  0.02862706  0.35219900     0.15600
C525        C  0.19989248  0.34665420  0.18952825     0.87400
C526        C  0.23859631  0.33084992  0.19099964    -0.52900
C527        C  0.25559948  0.33560323  0.21066247     0.10300
C528        C  0.23192815  0.35709590  0.22743625     0.21200
C529        C  0.17949974  0.32933863  0.20903493    -0.53600
C530        C  0.19623588  0.33454146  0.22880908     0.10400
C531        C  0.20357826  0.38692104  0.19626075    -0.53100
C532        C  0.22048768  0.39295804  0.21571747     0.11000
H533        H  0.25066102  0.31506349  0.17780330     0.15500
H534        H  0.24553147  0.36146589  0.24342588     0.01200
H535        H  0.15386437  0.31489882  0.20809345     0.15800
H536        H  0.19370879  0.40928923  0.18619885     0.15600
C537        C  0.37707635  0.16919256  0.19097547     0.87400
C538        C  0.35933051  0.15051294  0.21090736    -0.52900
C539        C  0.36525344  0.16790670  0.23032201     0.10300
C540        C  0.38821656  0.20321083  0.22828419     0.21200
C541        C  0.36159012  0.20818045  0.19192187    -0.53600
C542        C  0.36675343  0.22628391  0.21126613     0.10400
C543        C  0.41738695  0.17299369  0.19721524    -0.53100
C544        C  0.42380984  0.19067178  0.21642951     0.11000
H545        H  0.34254172  0.12639712  0.21062300     0.15500
H546        H  0.39292101  0.21747460  0.24407121     0.01200
H547        H  0.34544526  0.21956619  0.17870921     0.15800
H548        H  0.43945517  0.16243584  0.18705171     0.15600
In549      In  0.09193812  0.38803149  0.07195751     1.36900
C550        C  0.11212413  0.37068601  0.03156412     0.78500
O551        O  0.03994455  0.35589242  0.06635435    -0.60000
O552        O  0.03695976  0.40630514  0.08361062    -0.50900
C553        C  0.13203817  0.35861873  0.10405512     0.71100
O554        O  0.14556232  0.37700124  0.08875157    -0.45700
C555        C  0.09336719  0.46076708  0.07256091     0.75800
O556        O  0.12795109  0.39495793  0.04266383    -0.57600
O557        O  0.08596901  0.44253758  0.05566124    -0.47700
O558        O  0.08976502  0.35143047  0.04212613    -0.54000
C559        C  0.01998166  0.37980208  0.07533597     0.86000
O560        O  0.09843187  0.35246078  0.10183818    -0.55900
O561        O  0.09984807  0.44191999  0.08930996    -0.59200
In562      In  0.40711617  0.06331205  0.07096244     1.36900
C563        C  0.38936028  0.08347951  0.03076303     0.78500
O564        O  0.46069297  0.07828661  0.08623020    -0.60000
O565        O  0.46118108  0.05264197  0.05497934    -0.50900
C566        C  0.38049327  0.10145597  0.10445360     0.71100
O567        O  0.39606301  0.11626508  0.08847059    -0.45700
C568        C  0.40087562  0.99205197  0.07700467     0.75800
O569        O  0.41227330  0.10035099  0.04223562    -0.57600
O570        O  0.42796914  0.01034371  0.08328002    -0.47700
O571        O  0.37119707  0.05968342  0.04087981    -0.54000
C572        C  0.47936147  0.06647565  0.07037949     0.86000
O573        O  0.37428008  0.06794744  0.10178322    -0.55900
O574        O  0.37531362  0.01043236  0.06853768    -0.59200
In575      In  0.09839901  0.37369514  0.46682562     1.36900
C576        C  0.11557998  0.35613793  0.50740075     0.78500
O577        O  0.12948303  0.42575048  0.47336255    -0.60000
O578        O  0.08154286  0.42760662  0.45368684    -0.50900
C579        C  0.12639373  0.33881507  0.43238166     0.71100
O580        O  0.11732474  0.32222670  0.44954246    -0.45700
C581        C  0.02592284  0.37135901  0.46610303     0.75800
O582        O  0.09000179  0.34077020  0.49718911    -0.57600
O583        O  0.04514099  0.35104328  0.45398289    -0.47700
O584        O  0.13621656  0.37563722  0.49581447    -0.54000
C585        C  0.10656869  0.44508565  0.46317322     0.86000
O586        O  0.12574551  0.37302803  0.43419326    -0.55900
O587        O  0.04365862  0.39175122  0.47879630    -0.59200
In588      In  0.40830848  0.06926815  0.46739535     1.36900
C589        C  0.39157261  0.09221722  0.50748838     0.78500
O590        O  0.38418382  0.01554249  0.45573453    -0.60000
O591        O  0.42264083  0.01517776  0.48163128    -0.50900
C592        C  0.37422467  0.09133287  0.43132819     0.71100
O593        O  0.35843578  0.09093199  0.44967635    -0.45700
C594        C  0.47988486  0.07665428  0.46288572     0.75800
O595        O  0.37419261  0.06722460  0.49789325    -0.57600
O596        O  0.46323759  0.04686445  0.46069511    -0.47700
O597        O  0.41331438  0.10959807  0.49542947    -0.54000
C598        C  0.40295808  0.99683429  0.46883047     0.86000
O599        O  0.40782125  0.08435504  0.43221013    -0.55900
O600        O  0.45971907  0.10416962  0.46651107    -0.59200
In601      In  0.41046811  0.89342652  0.57443756     1.36900
C602        C  0.39443108  0.87224894  0.53391709     0.78500
O603        O  0.39833974  0.94812746  0.59020913    -0.60000
O604        O  0.41828731  0.94715309  0.55765905    -0.50900
C605        C  0.37004960  0.86441616  0.60650141     0.71100
O606        O  0.35631475  0.88111067  0.59056505    -0.45700
C607        C  0.48215788  0.88621699  0.57946068     0.75800
O608        O  0.37603390  0.89605713  0.54407053    -0.57600
O609        O  0.46439564  0.91254077  0.58754745    -0.47700
O610        O  0.41755156  0.85562688  0.54542694    -0.54000
C611        C  0.40793335  0.96617983  0.57369778     0.86000
O612        O  0.40399329  0.85954100  0.60484447    -0.55900
O613        O  0.46301159  0.86207787  0.57024029    -0.59200
C614        C  0.38033372  0.78077531  0.84882359     0.87400
C615        C  0.36262451  0.80144781  0.82967518    -0.52900
C616        C  0.36903017  0.78662269  0.80940467     0.10300
C617        C  0.39193885  0.75085187  0.81044843     0.21200
C618        C  0.36432842  0.74219336  0.84632381    -0.53600
C619        C  0.36989538  0.72636948  0.82635634     0.10400
C620        C  0.42069210  0.77710949  0.84274617    -0.53100
C621        C  0.42728142  0.76157295  0.82291262     0.11000
H622        H  0.34460908  0.82467295  0.83224483     0.15500
H623        H  0.39781394  0.73776407  0.79446350     0.01200
H624        H  0.34509569  0.73049639  0.85780775     0.15800
H625        H  0.44260379  0.78599683  0.85348083     0.15600
C626        C  0.20375515  0.60916896  0.84714662     0.87400
C627        C  0.24207404  0.62556728  0.84473553    -0.52900
C628        C  0.25860000  0.61880004  0.82512143     0.10300
C629        C  0.23493707  0.59560845  0.80932969     0.21200
C630        C  0.18341785  0.62537302  0.82731363    -0.53600
C631        C  0.19877621  0.61765948  0.80730720     0.10400
C632        C  0.20832062  0.56849348  0.84190565    -0.53100
C633        C  0.22453459  0.56110706  0.82235493     0.11000
H634        H  0.25368147  0.64444916  0.85656488     0.15500
H635        H  0.24873029  0.58871217  0.79373878     0.01200
H636        H  0.16077038  0.64425922  0.82904729     0.15800
H637        H  0.19955110  0.54704146  0.85294093     0.15600
C638        C  0.12286279  0.68559631  0.68903881     0.87400
C639        C  0.13908738  0.72429414  0.69102508    -0.52900
C640        C  0.13448492  0.74045646  0.71114967     0.10300
C641        C  0.11384704  0.71604143  0.72765809     0.21200
C642        C  0.14125277  0.66483626  0.70790108    -0.53600
C643        C  0.13644141  0.68025275  0.72803573     0.10400
C644        C  0.08291821  0.69029051  0.69602095    -0.53100
C645        C  0.07784422  0.70571658  0.71607492     0.11000
H646        H  0.15576682  0.73714248  0.67871573     0.15500
H647        H  0.10983801  0.72870821  0.74400415     0.01200
H648        H  0.15661135  0.63966139  0.70550905     0.15800
H649        H  0.06017433  0.68089464  0.68608191     0.15600
C650        C  0.29980595  0.85681130  0.69164016     0.87400
C651        C  0.31992704  0.84100434  0.71164460    -0.52900
C652        C  0.30298953  0.84761604  0.73116718     0.10300
C653        C  0.26740992  0.87012184  0.72929070     0.21200
C654        C  0.26116868  0.84117739  0.69349699    -0.53600
C655        C  0.24393154  0.84778764  0.71298239     0.10400
C656        C  0.29564196  0.89750860  0.69726464    -0.53100
C657        C  0.27897004  0.90491302  0.71673884     0.11000
H658        H  0.34529610  0.82601264  0.71137841     0.15500
H659        H  0.25384801  0.87564158  0.74521040     0.01200
H660        H  0.24902138  0.82467247  0.68062844     0.15800
H661        H  0.30627921  0.91902340  0.68686877     0.15600
In662      In  0.09927771  0.57408553  0.96741759     1.36900
C663        C  0.11606505  0.59162301  0.00825944     0.78500
O664        O  0.04637617  0.60506562  0.97267764    -0.60000
O665        O  0.04620114  0.55609464  0.95364979    -0.50900
C666        C  0.13389548  0.60293262  0.93291523     0.71100
O667        O  0.15066457  0.59361437  0.94997703    -0.45700
C668        C  0.10233776  0.50131664  0.96797495     0.75800
O669        O  0.13298101  0.56736244  0.99765674    -0.57600
O670        O  0.08053948  0.51969576  0.97953368    -0.47700
O671        O  0.09499979  0.61121028  0.99697510    -0.54000
C672        C  0.02785671  0.58139414  0.96245982     0.86000
O673        O  0.09976634  0.60114421  0.93472055    -0.55900
O674        O  0.12346377  0.52003663  0.95623194    -0.59200
In675      In  0.09727742  0.56151974  0.57348015     1.36900
C676        C  0.11694466  0.57654051  0.53276868     0.78500
O677        O  0.13102150  0.50964021  0.57112664    -0.60000
O678        O  0.07761540  0.50718083  0.58486670    -0.50900
C679        C  0.12126333  0.59896657  0.60815142     0.71100
O680        O  0.12180794  0.61235244  0.58922044    -0.45700
C681        C  0.02496481  0.56796085  0.57163648     0.75800
O682        O  0.13545974  0.55518221  0.54450678    -0.57600
O683        O  0.04270891  0.54477292  0.56067627    -0.47700
O684        O  0.09256886  0.59418510  0.54283881    -0.54000
C685        C  0.10557271  0.48992547  0.57855322     0.86000
O686        O  0.11312057  0.56563712  0.60853356    -0.55900
O687        O  0.04417797  0.58904253  0.58315365    -0.59200
In688      In  0.41170129  0.88891104  0.96831174     1.36900
C689        C  0.39220011  0.86881071  0.00845338     0.78500
O690        O  0.46573025  0.86854719  0.95543970    -0.60000
O691        O  0.46621776  0.90479345  0.98256503    -0.50900
C692        C  0.38447554  0.85388539  0.93364303     0.71100
O693        O  0.39491744  0.83719632  0.95046357    -0.45700
C694        C  0.40177532  0.95989706  0.96227696     0.75800
O695        O  0.41544563  0.85153225  0.99728389    -0.57600
O696        O  0.42912632  0.94260969  0.95507390    -0.47700
O697        O  0.37509832  0.89310107  0.99809286    -0.54000
C698        C  0.48454036  0.88614904  0.96907531     0.86000
O699        O  0.38397767  0.88800115  0.93578704    -0.55900
O700        O  0.37823378  0.94062849  0.97199641    -0.59200
C701        C  0.37951011  0.77031898  0.19140876     0.87400
C702        C  0.36330788  0.73186444  0.19358017    -0.52900
C703        C  0.37071821  0.71499511  0.21292623     0.10300
C704        C  0.39436956  0.73841712  0.22863214     0.21200
C705        C  0.36385384  0.79014290  0.21169000    -0.53600
C706        C  0.37220446  0.77431393  0.23132958     0.10400
C707        C  0.42030185  0.76577365  0.19595085    -0.53100
C708        C  0.42845769  0.74924032  0.21520183     0.11000
H709        H  0.34412422  0.72041952  0.18190582     0.15500
H710        H  0.40163126  0.72444261  0.24403373     0.01200
H711        H  0.34489204  0.81283832  0.21055220     0.15800
H712        H  0.44131609  0.77495972  0.18468386     0.15600
C713        C  0.20815916  0.59639458  0.18956344     0.87400
C714        C  0.18677053  0.61198814  0.20925492    -0.52900
C715        C  0.20242535  0.60524498  0.22904942     0.10300
C716        C  0.23802792  0.58256322  0.22762367     0.21200
C717        C  0.24697871  0.61146500  0.19222986    -0.53600
C718        C  0.26267473  0.60496438  0.21206537     0.10400
C719        C  0.21126828  0.55549458  0.19493839    -0.53100
C720        C  0.22700402  0.54783324  0.21456552     0.11000
H721        H  0.16057390  0.62554612  0.20842862     0.15500
H722        H  0.25070006  0.57689954  0.24371975     0.01200
H723        H  0.25971902  0.62881174  0.18005192     0.15800
H724        H  0.20103546  0.53409988  0.18421780     0.15600
C725        C  0.12959361  0.66530886  0.34956855     0.87400
C726        C  0.14465062  0.64531210  0.32924968    -0.52900
C727        C  0.13732852  0.66176527  0.30959700     0.10300
C728        C  0.11639635  0.69856478  0.31257176     0.21200
C729        C  0.14748767  0.70314173  0.34768057    -0.53600
C730        C  0.14086073  0.72072396  0.32847275     0.10400
C731        C  0.08901833  0.67165552  0.34495116    -0.53100
C732        C  0.08173412  0.68905076  0.32584062     0.11000
H733        H  0.16287590  0.62210847  0.33069315     0.15500
H734        H  0.10939850  0.71346393  0.29749935     0.01200
H735        H  0.16662392  0.71395026  0.35958115     0.15800
H736        H  0.06756076  0.66347917  0.35619883     0.15600
C737        C  0.30154987  0.84481612  0.35041428     0.87400
C738        C  0.26323695  0.82805990  0.34814345    -0.52900
C739        C  0.24729895  0.83293817  0.32817001     0.10300
C740        C  0.27152087  0.85462734  0.31196897     0.21200
C741        C  0.32269491  0.82698499  0.33129737    -0.53600
C742        C  0.30768397  0.83272919  0.31122394     0.10400
C743        C  0.29694617  0.88495815  0.34400722    -0.53100
C744        C  0.28138106  0.89046826  0.32409715     0.11000
H745        H  0.25118835  0.81013113  0.36020913     0.15500
H746        H  0.25884885  0.85876291  0.29570140     0.01200
H747        H  0.34725499  0.81065269  0.33335233     0.15800
H748        H  0.30559234  0.90744457  0.35443703     0.15600
In749      In  0.09581921  0.57341082  0.07253628     1.36900
C750        C  0.11498603  0.59122809  0.03218070     0.78500
O751        O  0.09937719  0.51927020  0.08969237    -0.60000
O752        O  0.08934793  0.51919379  0.05557889    -0.50900
C753        C  0.13930888  0.59880408  0.10408774     0.71100
O754        O  0.14985133  0.57731669  0.08929992    -0.45700
C755        C  0.02420815  0.58215655  0.07688661     0.75800
O756        O  0.13114550  0.56672203  0.04287623    -0.57600
O757        O  0.04208542  0.55852225  0.08721517    -0.47700
O758        O  0.09279040  0.61038183  0.04313924    -0.54000
C759        C  0.09410366  0.50069112  0.07262934     0.86000
O760        O  0.10750560  0.61116555  0.10117573    -0.55900
O761        O  0.04325489  0.60398958  0.06582285    -0.59200
In762      In  0.41054831  0.88449605  0.46871911     1.36900
C763        C  0.39414046  0.86974671  0.50998573     0.78500
O764        O  0.46341436  0.85279374  0.47237700    -0.60000
O765        O  0.46418574  0.90444598  0.45647470    -0.50900
C766        C  0.37567868  0.85412207  0.43478085     0.71100
O767        O  0.35950977  0.86111451  0.45252897    -0.45700
C768        C  0.40406498  0.95695021  0.46875365     0.75800
O769        O  0.37567473  0.89155698  0.49862098    -0.57600
O770        O  0.42467940  0.93975759  0.48150281    -0.47700
O771        O  0.41688356  0.85073377  0.49934131    -0.54000
C772        C  0.48227743  0.87781877  0.46375068     0.86000
O773        O  0.40966034  0.85855842  0.43567886    -0.55900
O774        O  0.38618115  0.93716488  0.45570257    -0.59200
In775      In  0.41048793  0.88097877  0.07310259     1.36900
C776        C  0.39126298  0.86630447  0.03235228     0.78500
O777        O  0.37591532  0.93213441  0.07112273    -0.60000
O778        O  0.43014935  0.93556341  0.08354550    -0.50900
C779        C  0.38356781  0.84411357  0.10715335     0.71100
O780        O  0.39267595  0.82826789  0.08960459    -0.45700
C781        C  0.48331274  0.87816961  0.07188158     0.75800
O782        O  0.41358116  0.84658745  0.04266250    -0.57600
O783        O  0.46438062  0.89209741  0.05696131    -0.47700
O784        O  0.37371437  0.88878855  0.04399861    -0.54000
C785        C  0.40165393  0.95223489  0.07776067     0.86000
O786        O  0.38471626  0.87837073  0.10608994    -0.55900
O787        O  0.46512702  0.86472274  0.08736298    -0.59200
In788      In  0.09894515  0.55635213  0.46848531     1.36900
C789        C  0.11760399  0.57531763  0.50883321     0.78500
O790        O  0.04512332  0.57827365  0.45602469    -0.60000
O791        O  0.04421043  0.54199538  0.48286505    -0.50900
C792        C  0.12734493  0.59025635  0.43365248     0.71100
O793        O  0.11978741  0.60691756  0.45116405    -0.45700
C794        C  0.10638702  0.48494441  0.46370618     0.75800
O795        O  0.13556217  0.55176936  0.49816199    -0.57600
O796        O  0.08017683  0.50277519  0.45571046    -0.47700
O797        O  0.09469231  0.59299496  0.49776612    -0.54000
C798        C  0.02608548  0.56084728  0.46958383     0.86000
O799        O  0.12443576  0.55616228  0.43507562    -0.55900
O800        O  0.13038285  0.50386809  0.47331864    -0.59200
C801        C  0.35865243  0.84633594  0.37412759     0.24500
C802        C  0.32040695  0.84148700  0.37275156    -0.23600
C803        C  0.30052442  0.83996748  0.39265052     0.19400
C804        C  0.31854151  0.84154230  0.41288357     0.24400
C805        C  0.35674108  0.84546476  0.41390860    -0.23600
C806        C  0.37648782  0.84723111  0.39421456     0.19300
F807        F  0.41315839  0.85291443  0.39420861    -0.13500
F808        F  0.37903967  0.85312239  0.35606619    -0.15900
F809        F  0.29820306  0.84148101  0.43145483    -0.15900
F810        F  0.26345848  0.84022883  0.39290820    -0.13500
C811        C  0.13302271  0.60694063  0.37273394     0.24500
C812        C  0.13501039  0.64554239  0.37148567    -0.23600
C813        C  0.13569232  0.66531092  0.39144171     0.19400
C814        C  0.13646425  0.64727071  0.41157268     0.24400
C815        C  0.13486399  0.60895684  0.41258884    -0.23600
C816        C  0.13400170  0.58901902  0.39287054     0.19300
F817        F  0.13134346  0.55198246  0.39296059    -0.13500
F818        F  0.12702042  0.58617189  0.35467529    -0.15900
F819        F  0.13660466  0.66764149  0.43016332    -0.15900
F820        F  0.13262490  0.70226587  0.39182043    -0.13500
C821        C  0.21808460  0.78065381  0.30849420     0.24500
C822        C  0.21434970  0.81111027  0.32239185    -0.23600
C823        C  0.18249571  0.81433884  0.33519957     0.19400
C824        C  0.15623563  0.78641821  0.33525228     0.24400
C825        C  0.16184368  0.75428633  0.32299506    -0.23600
C826        C  0.19287084  0.75189539  0.30943444     0.19300
F827        F  0.20164900  0.71990595  0.29946670    -0.13500
F828        F  0.24848906  0.77650368  0.29603134    -0.15900
F829        F  0.12701090  0.78918891  0.34886449    -0.15900
F830        F  0.17838261  0.84315177  0.34905451    -0.13500
C831        C  0.16390463  0.62784791  0.16172697     0.24500
C832        C  0.19284452  0.60321805  0.16652592    -0.23600
C833        C  0.20839544  0.58361608  0.14888128     0.19400
C834        C  0.19251771  0.58427121  0.12817885     0.24400
C835        C  0.16090323  0.60518122  0.12424516    -0.23600
C836        C  0.14778880  0.62818508  0.14095973     0.19300
F837        F  0.11869140  0.65051364  0.13742186    -0.13500
F838        F  0.15150105  0.65268921  0.17645373    -0.15900
F839        F  0.20710209  0.56258399  0.11233564    -0.15900
F840        F  0.23830796  0.56216727  0.15190419    -0.13500
C841        C  0.17565865  0.65641321  0.25131624     0.24500
C842        C  0.18607525  0.61950662  0.24963097    -0.23600
C843        C  0.17864149  0.59611311  0.26707455     0.19400
C844        C  0.16084309  0.60925956  0.28583158     0.24400
C845        C  0.15219799  0.64693398  0.28827855    -0.23600
C846        C  0.15944637  0.67007645  0.27036081     0.19300
F847        F  0.15184146  0.70630485  0.27095025    -0.13500
F848        F  0.18189143  0.67979512  0.23456566    -0.15900
F849        F  0.15079692  0.58444810  0.30108613    -0.15900
F850        F  0.18715802  0.56004795  0.26560697    -0.13500
C851        C  0.37279276  0.82768900  0.16774817     0.24500
C852        C  0.37344291  0.78910391  0.16928681    -0.23600
C853        C  0.37584360  0.76887894  0.14950727     0.19400
C854        C  0.37647843  0.78648340  0.12920317     0.24400
C855        C  0.37567448  0.82482865  0.12796637    -0.23600
C856        C  0.37288118  0.84506093  0.14750342     0.19300
F857        F  0.37308604  0.88218679  0.14728134    -0.13500
F858        F  0.37541818  0.84936750  0.18570054    -0.15900
F859        F  0.38000818  0.76586465  0.11081822    -0.15900
F860        F  0.38032473  0.73204252  0.14963461    -0.13500
C861        C  0.34799184  0.76607552  0.26992592     0.24500
C862        C  0.35798290  0.78932509  0.25258882    -0.23600
C863        C  0.35260398  0.82737744  0.25537074     0.19400
C864        C  0.33534822  0.84129648  0.27408825     0.24400
C865        C  0.32472729  0.81790041  0.29099006    -0.23600
C866        C  0.33211907  0.78033302  0.28898490     0.19300
F867        F  0.32281401  0.75711449  0.30529266    -0.13500
F868        F  0.35209906  0.72932348  0.26838292    -0.15900
F869        F  0.33000537  0.87786748  0.27591474    -0.15900
F870        F  0.36479805  0.85144441  0.24021800    -0.13500
C871        C  0.35649721  0.64808647  0.21120337     0.24500
C872        C  0.34820557  0.68312666  0.21937667    -0.23600
C873        C  0.31360010  0.68942986  0.22865300     0.19400
C874        C  0.28733602  0.66175509  0.22897027     0.24400
C875        C  0.29429037  0.62777245  0.21898404    -0.23600
C876        C  0.32955248  0.62070705  0.21073702     0.19300
F877        F  0.33697244  0.58833354  0.20073517    -0.13500
F878        F  0.38957801  0.64151406  0.20188271    -0.15900
F879        F  0.25361544  0.66976471  0.23676502    -0.15900
F880        F  0.30352764  0.72365476  0.23492258    -0.13500
C881        C  0.13858116  0.65697636  0.62817458     0.24500
C882        C  0.12581475  0.62075603  0.62850392    -0.23600
C883        C  0.11257395  0.60665428  0.64828814     0.19400
C884        C  0.11223012  0.62792600  0.66720950     0.24400
C885        C  0.12538762  0.66422857  0.66732430    -0.23600
C886        C  0.13801915  0.67869092  0.64720934     0.19300
F887        F  0.14770564  0.71416816  0.64509976    -0.13500
F888        F  0.15063160  0.67190116  0.60923133    -0.15900
F889        F  0.09744544  0.61313989  0.68550878    -0.15900
F890        F  0.09779029  0.57267518  0.64923174    -0.13500
C891        C  0.20505225  0.80454662  0.73492263     0.24500
C892        C  0.20833104  0.82970194  0.71770172    -0.23600
C893        C  0.18066464  0.83085753  0.70181390     0.19400
C894        C  0.15367944  0.80389521  0.70113393     0.24400
C895        C  0.15355780  0.77541871  0.71650189    -0.23600
C896        C  0.17753518  0.77772547  0.73443296     0.19300
F897        F  0.17698232  0.75183056  0.75021755    -0.13500
F898        F  0.23073367  0.80321962  0.75086016    -0.15900
F899        F  0.12948681  0.80384801  0.68434111    -0.15900
F900        F  0.18190903  0.85615050  0.68567442    -0.13500
C901        C  0.14740552  0.61615611  0.87213873     0.24500
C902        C  0.18587838  0.61464616  0.86974152    -0.23600
C903        C  0.20696082  0.61121365  0.88905599     0.19400
C904        C  0.19036685  0.61039537  0.90972142     0.24400
C905        C  0.15212561  0.61158221  0.91181169    -0.23600
C906        C  0.13099919  0.61525722  0.89276513     0.19300
F907        F  0.09390954  0.61508640  0.89380480    -0.13500
F908        F  0.12482978  0.61519667  0.85462196    -0.15900
F909        F  0.21184347  0.60607642  0.92758941    -0.15900
F910        F  0.24366757  0.60595816  0.88808770    -0.13500
C911        C  0.20506803  0.64048802  0.76815995     0.24500
C912        C  0.18276854  0.63185299  0.78628440    -0.23600
C913        C  0.14465982  0.63808953  0.78436579     0.19400
C914        C  0.12995730  0.65486523  0.76580702     0.24400
C915        C  0.15236750  0.66375382  0.74805839    -0.23600
C916        C  0.18986530  0.65542647  0.74915593     0.19300
F917        F  0.21213401  0.66278354  0.73197241    -0.13500
F918        F  0.24182814  0.63592798  0.76882369    -0.15900
F919        F  0.09344132  0.66127876  0.76490800    -0.15900
F920        F  0.12112930  0.62702446  0.80015011    -0.16700
C921        C  0.38132394  0.83777329  0.87278003     0.24500
C922        C  0.37588071  0.79960340  0.87114852    -0.23600
C923        C  0.37214484  0.77974132  0.89087221     0.19400
C924        C  0.37233810  0.79768011  0.91114430     0.24400
C925        C  0.37730406  0.83563867  0.91244502    -0.23600
C926        C  0.38119497  0.85552812  0.89299975     0.19300
F927        F  0.38781910  0.89204803  0.89350106    -0.13500
F928        F  0.38926852  0.85799320  0.85486125    -0.15900
F929        F  0.36934088  0.77751069  0.92961079    -0.15900
F930        F  0.37149930  0.74270604  0.89108520    -0.13500
C931        C  0.34686745  0.84059229  0.78706807     0.24500
C932        C  0.35237840  0.80239829  0.78908302    -0.23600
C933        C  0.34045153  0.77961509  0.77185296     0.19400
C934        C  0.32333480  0.79444197  0.75349264     0.24400
C935        C  0.31769556  0.83229075  0.75174591    -0.23600
C936        C  0.32932557  0.85523441  0.76872056     0.19300
F937        F  0.32517193  0.89201272  0.76711351    -0.13500
F938        F  0.35976436  0.86414499  0.80240126    -0.15900
F939        F  0.31192198  0.77164612  0.73732634    -0.15900
F940        F  0.34439775  0.74279998  0.77272365    -0.13500
C941        C  0.35302652  0.65991279  0.82634247     0.24500
C942        C  0.34538845  0.69589127  0.81970343    -0.23600
C943        C  0.31014848  0.70414239  0.81192701     0.19400
C944        C  0.28307379  0.67726473  0.81105824     0.24400
C945        C  0.29012692  0.64181338  0.81869232    -0.23600
C946        C  0.32553943  0.63309229  0.82592324     0.19300
F947        F  0.33250291  0.59961084  0.83445026    -0.13500
F948        F  0.38599327  0.65173596  0.83523486    -0.15900
F949        F  0.24858213  0.68716880  0.80540677    -0.15900
F950        F  0.30039843  0.73925105  0.80785250    -0.13500
C951        C  0.36554316  0.83470566  0.64327474     0.24500
C952        C  0.34905867  0.85482656  0.62645416    -0.23600
C953        C  0.31423102  0.86991341  0.63016697     0.19400
C954        C  0.29811208  0.86827060  0.65086552     0.24400
C955        C  0.31623166  0.85148711  0.66860392    -0.23600
C956        C  0.34925904  0.83251109  0.66395750     0.19300
F957        F  0.36663183  0.81174412  0.67891304    -0.13500
F958        F  0.39826763  0.81791345  0.63997732    -0.15900
F959        F  0.26529263  0.88504958  0.65385888    -0.15900
F960        F  0.29657503  0.88843568  0.61416758    -0.13500
C961        C  0.35723954  0.11718752  0.16394398     0.24500
C962        C  0.37323224  0.15180480  0.16814446    -0.23600
C963        C  0.38873369  0.17057819  0.15021657     0.19400
C964        C  0.38892477  0.15533382  0.12925917     0.24400
C965        C  0.37387410  0.12060999  0.12544642    -0.23600
C966        C  0.35761488  0.10204752  0.14294631     0.19300
F967        F  0.34361583  0.06800080  0.14009211    -0.13500
F968        F  0.34287118  0.09612927  0.17982565    -0.15900
F969        F  0.40596733  0.17381174  0.11299151    -0.15900
F970        F  0.40552113  0.20332131  0.15316566    -0.13500
C971        C  0.25907301  0.44946585  0.21878914     0.24500
C972        C  0.22596560  0.43146101  0.22331755    -0.23600
C973        C  0.19517527  0.45280454  0.22885098     0.19400
C974        C  0.19671151  0.49115972  0.22824312     0.24400
C975        C  0.22908476  0.50914263  0.22215893    -0.23600
C976        C  0.26059664  0.48797913  0.21814432     0.19300
F977        F  0.29183856  0.50444605  0.21143104    -0.13500
F978        F  0.28890796  0.42973813  0.21270672    -0.15900
F979        F  0.16554690  0.51071157  0.23150524    -0.15900
F980        F  0.16256627  0.43642050  0.23275543    -0.13500
C981        C  0.15366549  0.32161760  0.16037726     0.24500
C982        C  0.18443208  0.34299159  0.16620898    -0.23600
C983        C  0.20172400  0.36299509  0.14939309     0.19400
C984        C  0.18599343  0.36607565  0.12872433     0.24400
C985        C  0.15288090  0.34847892  0.12392533    -0.23600
C986        C  0.13799795  0.32468236  0.13953879     0.19300
F987        F  0.10780940  0.30467228  0.13476459    -0.13500
F988        F  0.13877424  0.29705506  0.17421230    -0.15900
F989        F  0.20221109  0.38825847  0.11388785    -0.15900
F990        F  0.23327415  0.38138391  0.15331933    -0.13500
C991        C  0.32023932  0.26315407  0.23257707     0.24500
C992        C  0.34613899  0.26107284  0.21555816    -0.23600
C993        C  0.34612637  0.28887711  0.19970907     0.19400
C994        C  0.31878740  0.31582069  0.19963177     0.24400
C995        C  0.29044663  0.31546048  0.21522545    -0.23600
C996        C  0.29247638  0.28994006  0.23233528     0.19300
F997        F  0.26543064  0.28826948  0.24748284    -0.13500
F998        F  0.31928992  0.23694797  0.24814632    -0.15900
F999        F  0.31830541  0.34064371  0.18321235    -0.15900
F1000       F  0.37099773  0.28825989  0.18321735    -0.13500
C1001       C  0.30516168  0.98661424  0.30753996     0.24500
C1002       C  0.27365276  0.00571244  0.31423767    -0.23600
C1003       C  0.24238333  0.98563805  0.32006009     0.19400
C1004       C  0.24350573  0.94719882  0.32065526     0.24400
C1005       C  0.27611900  0.92833927  0.31590559    -0.23600
C1006       C  0.30659374  0.94835237  0.30869674     0.19300
F1007       F  0.33900292  0.93121585  0.30507221    -0.13500
F1008       F  0.33596944  0.00529403  0.30231846    -0.15900
F1009       F  0.21405109  0.92861876  0.32822710    -0.15900
F1010       F  0.21213775  0.00331854  0.32752133    -0.13500
C1011       C  0.35449423  0.08750157  0.37076587     0.24500
C1012       C  0.31665866  0.09517787  0.36977882    -0.23600
C1013       C  0.29807663  0.10194882  0.38974061     0.19400
C1014       C  0.31710537  0.10284652  0.40958112     0.24400
C1015       C  0.35491277  0.09609827  0.41023451    -0.23600
C1016       C  0.37336996  0.08866029  0.39051794     0.19300
F1017       F  0.40955570  0.08023504  0.39032734    -0.13500
F1018       F  0.37322143  0.07682244  0.35263748    -0.15900
F1019       F  0.29794837  0.10837425  0.42832365    -0.15900
F1020       F  0.26115980  0.10444883  0.39076708    -0.13500
C1021       C  0.31125232  0.14965404  0.25306276     0.24500
C1022       C  0.34933713  0.15340145  0.25089037    -0.23600
C1023       C  0.37201916  0.13905189  0.26715040     0.19400
C1024       C  0.35696254  0.12178608  0.28548322     0.24400
C1025       C  0.31863113  0.11850919  0.28801289    -0.23600
C1026       C  0.29604448  0.13244208  0.27135479     0.19300
F1027       F  0.25913172  0.13027636  0.27280814    -0.13500
F1028       F  0.28865314  0.16276725  0.23735728    -0.15900
F1029       F  0.38014149  0.10709994  0.30035684    -0.15900
F1030       F  0.40888230  0.14016084  0.26476862    -0.13500
C1031       C  0.12797253  0.33994644  0.39168944     0.24500
C1032       C  0.13255751  0.32020151  0.41113618    -0.23600
C1033       C  0.13617872  0.28203935  0.40990076     0.19400
C1034       C  0.13411473  0.26380553  0.38975233     0.24400
C1035       C  0.12925289  0.28352477  0.37005077    -0.23600
C1036       C  0.12528177  0.32188832  0.37163545     0.19300
F1037       F  0.11660680  0.34214260  0.35385385    -0.13500
F1038       F  0.12322885  0.37678662  0.39210442    -0.15900
F1039       F  0.13361440  0.22677841  0.39021411    -0.15900
F1040       F  0.13987975  0.26199298  0.42837475    -0.13500
C1041       C  0.15706883  0.32515247  0.28611990     0.24500
C1042       C  0.15080854  0.28701844  0.28767165    -0.23600
C1043       C  0.16007925  0.26497073  0.26948070     0.19400
C1044       C  0.17488283  0.28048576  0.25052259     0.24400
C1045       C  0.18151754  0.31826841  0.24928453    -0.23600
C1046       C  0.17276280  0.34036834  0.26731604     0.19300
F1047       F  0.17809908  0.37704175  0.26643480    -0.13500
F1048       F  0.14685405  0.34824469  0.30245136    -0.15900
F1049       F  0.18366508  0.25829792  0.23345075    -0.15900
F1050       F  0.15605787  0.22814992  0.27004808    -0.13500
C1051       C  0.14788220  0.14336392  0.32421416     0.24500
C1052       C  0.15640746  0.17957151  0.31849094    -0.23600
C1053       C  0.19242964  0.18799692  0.31238087     0.19400
C1054       C  0.21975718  0.16135491  0.31296572     0.24400
C1055       C  0.21169260  0.12540733  0.31928214    -0.23600
C1056       C  0.17539334  0.11640225  0.32459718     0.19300
F1057       F  0.16734531  0.08252484  0.33215160    -0.13500
F1058       F  0.11377756  0.13498644  0.33137378    -0.15900
F1059       F  0.25496837  0.17188883  0.31006057    -0.15900
F1060       F  0.20225633  0.22317641  0.30869464    -0.13500
C1061       C  0.20382905  0.46400856  0.80575062     0.24500
C1062       C  0.23331305  0.44529807  0.81535838    -0.23600
C1063       C  0.26307490  0.46554165  0.82329196     0.19400
C1064       C  0.26193805  0.50391378  0.82343916     0.24400
C1065       C  0.23113734  0.52260965  0.81549338    -0.23600
C1066       C  0.20282616  0.50241748  0.80573546     0.19300
F1067       F  0.17271275  0.51983408  0.79801790    -0.13500
F1068       F  0.17442267  0.44509443  0.79833795    -0.15900
F1069       F  0.28934403  0.52276656  0.83322918    -0.15900
F1070       F  0.29157146  0.44810650  0.83290387    -0.13500
C1071       C  0.18775814  0.35580409  0.90941924     0.24500
C1072       C  0.14946077  0.35622919  0.91054953    -0.23600
C1073       C  0.12937632  0.35684189  0.89095468     0.19400
C1074       C  0.14720005  0.35727314  0.87075856     0.24400
C1075       C  0.18580853  0.35589733  0.86945337    -0.23600
C1076       C  0.20565223  0.35660824  0.88927072     0.19300
F1077       F  0.24244686  0.36106575  0.88946575    -0.13500
F1078       F  0.20819957  0.35718475  0.92787883    -0.15900
F1079       F  0.12630628  0.36198530  0.85269220    -0.15900
F1080       F  0.09233242  0.35971047  0.89120445    -0.13500
C1081       C  0.38683092  0.18336225  0.88936322     0.24500
C1082       C  0.37894210  0.16394515  0.86991195    -0.23600
C1083       C  0.36971229  0.12643575  0.87184593     0.19400
C1084       C  0.36701923  0.10987257  0.89226868     0.24400
C1085       C  0.37522389  0.12929718  0.91146962    -0.23600
C1086       C  0.38451944  0.16647521  0.90980894     0.19300
F1087       F  0.39357003  0.18613944  0.92785609    -0.13500
F1088       F  0.39876622  0.21845673  0.88856534    -0.15900
F1089       F  0.35877923  0.07370739  0.89298277    -0.15900
F1090       F  0.36682571  0.10394720  0.85431556    -0.13500
C1091       C  0.31126285  0.26086845  0.81545418     0.24500
C1092       C  0.34724448  0.26950446  0.82154194    -0.23600
C1093       C  0.35592466  0.30598155  0.82665859     0.19400
C1094       C  0.32858992  0.33314052  0.82643565     0.24400
C1095       C  0.29232564  0.32402956  0.82116999    -0.23600
C1096       C  0.28410164  0.28775010  0.81538390     0.19300
F1097       F  0.24892480  0.27752257  0.81191443    -0.13500
F1098       F  0.30156344  0.22558568  0.81173305    -0.15900
F1099       F  0.33681561  0.36759121  0.83310689    -0.15900
F1100       F  0.39008344  0.31467228  0.83353172    -0.13500
C1101       C  0.13603163  0.31648964  0.76532487     0.24500
C1102       C  0.15928126  0.30007304  0.74995711    -0.23600
C1103       C  0.19733422  0.30266370  0.75270443     0.19400
C1104       C  0.21195381  0.31976222  0.77120960     0.24400
C1105       C  0.18865063  0.33530098  0.78709649    -0.23600
C1106       C  0.15055746  0.33456984  0.78349485     0.19300
F1107       F  0.12735014  0.35233782  0.79727070    -0.13500
F1108       F  0.09928732  0.31633744  0.76225771    -0.15900
F1109       F  0.24878837  0.32015335  0.77368579    -0.15900
F1110       F  0.22036131  0.28825804  0.73748767    -0.13500
C1111       C  0.24788918  0.00300518  0.72449134     0.24500
C1112       C  0.28197988  0.02068073  0.72561290    -0.23600
C1113       C  0.31360504  0.99932308  0.72853784     0.19400
C1114       C  0.31161058  0.96111367  0.72846617     0.24400
C1115       C  0.27809620  0.94329901  0.72499767    -0.23600
C1116       C  0.24597100  0.96448949  0.72392219     0.19300
F1117       F  0.21335431  0.94813814  0.72000406    -0.13500
F1118       F  0.21697613  0.02296053  0.72151419    -0.15900
F1119       F  0.34306221  0.94136238  0.72939876    -0.15900
F1120       F  0.34697321  0.01544602  0.72927703    -0.13500
C1121       C  0.30153325  0.10679128  0.64976299     0.24500
C1122       C  0.32209852  0.11042742  0.66920537    -0.23600
C1123       C  0.36059889  0.11268664  0.66715845     0.19400
C1124       C  0.37732950  0.11438587  0.64664975     0.24400
C1125       C  0.35649591  0.11209404  0.62740978    -0.23600
C1126       C  0.31838056  0.10850780  0.62924307     0.19300
F1127       F  0.29736398  0.10464388  0.61113724    -0.13500
F1128       F  0.26535768  0.09876646  0.65038280    -0.15900
F1129       F  0.41442791  0.11523243  0.64576973    -0.15900
F1130       F  0.38281058  0.11015653  0.68480967    -0.13500
C1131       C  0.34027522  0.11205927  0.76624189     0.24500
C1132       C  0.32385740  0.13474344  0.75074334    -0.23600
C1133       C  0.32664135  0.17290888  0.75314287     0.19400
C1134       C  0.34425659  0.18819337  0.77131644     0.24400
C1135       C  0.35999638  0.16547196  0.78725143    -0.23600
C1136       C  0.35890097  0.12720451  0.78401921     0.19300
F1137       F  0.37660477  0.10434430  0.79787321    -0.13500
F1138       F  0.33943457  0.07517649  0.76373086    -0.15900
F1139       F  0.34489697  0.22510309  0.77348002    -0.15900
F1140       F  0.31178191  0.19541362  0.73797169    -0.13500
C1141       C  0.15663597  0.15878150  0.70441816     0.24500
C1142       C  0.15863065  0.18853004  0.71902403    -0.23600
C1143       C  0.18540432  0.18788692  0.73548448     0.19400
C1144       C  0.21259112  0.16063406  0.73545175     0.24400
C1145       C  0.21338464  0.13373756  0.71893042    -0.23600
C1146       C  0.18380602  0.13172869  0.70431583     0.19300
F1147       F  0.18310044  0.10543160  0.68859026    -0.13500
F1148       F  0.13038322  0.15800301  0.68877148    -0.15900
F1149       F  0.24041712  0.16323316  0.74996606    -0.15900
F1150       F  0.18799327  0.21593533  0.74996291    -0.13500
C1151       C  0.12716976  0.28506046  0.62833597     0.24500
C1152       C  0.13990910  0.32044272  0.62402240    -0.23600
C1153       C  0.15559368  0.34075137  0.64109313     0.19400
C1154       C  0.15537139  0.32757217  0.66245190     0.24400
C1155       C  0.14039855  0.29279613  0.66727243    -0.23600
C1156       C  0.12699906  0.27162841  0.64961977     0.19300
F1157       F  0.11129414  0.23855774  0.65314086    -0.13500
F1158       F  0.11262442  0.26414935  0.61217792    -0.15900
F1159       F  0.16677681  0.35109109  0.67809196    -0.15900
F1160       F  0.16831209  0.37508573  0.63758532    -0.13500
C1161       C  0.52348814  0.76716896  0.23721255     0.24500
C1162       C  0.54474544  0.74647449  0.22242273    -0.23600
C1163       C  0.52691102  0.72179989  0.20835365     0.19400
C1164       C  0.48871003  0.71991704  0.20779990     0.24400
C1165       C  0.46734136  0.74271956  0.22124682    -0.23600
C1166       C  0.48497308  0.76529168  0.23662733     0.19300
F1167       F  0.46497994  0.78834936  0.24937880    -0.13500
F1168       F  0.53976560  0.79207959  0.25048105    -0.15900
F1169       F  0.47242412  0.69839589  0.19254762    -0.15900
F1170       F  0.54648379  0.70256209  0.19331636    -0.13500
C1171       C  0.65166040  0.84606016  0.14205119     0.24500
C1172       C  0.63205825  0.82859578  0.12526261    -0.23600
C1173       C  0.61486963  0.79520000  0.12978287     0.19400
C1174       C  0.61446355  0.78137454  0.15098052     0.24400
C1175       C  0.63111595  0.80049308  0.16848210    -0.23600
C1176       C  0.65180320  0.83194550  0.16331275     0.19300
F1177       F  0.67334378  0.84874208  0.17821908    -0.13500
F1178       F  0.67047594  0.87723944  0.13796951    -0.15900
F1179       F  0.59679491  0.74929647  0.15449023    -0.15900
F1180       F  0.59661761  0.77664629  0.11395256    -0.13500
C1181       C  0.80386034  0.58648205  0.14739096     0.24500
C1182       C  0.82063069  0.60426056  0.16531261    -0.23600
C1183       C  0.85093245  0.62715809  0.16087429     0.19400
C1184       C  0.86680829  0.62764990  0.14005732     0.24400
C1185       C  0.85212451  0.60661115  0.12300631    -0.23600
C1186       C  0.81961822  0.58728910  0.12662532     0.19300
F1187       F  0.80432313  0.56697116  0.11044085    -0.13500
F1188       F  0.77250060  0.56721236  0.15006635    -0.15900
F1189       F  0.89688344  0.64855539  0.13661033    -0.15900
F1190       F  0.86470050  0.65038030  0.17604182    -0.13500
C1191       C  0.71718198  0.66518960  0.23092304     0.24500
C1192       C  0.71655208  0.63881755  0.21409913    -0.23600
C1193       C  0.68722277  0.63903729  0.19926530     0.19400
C1194       C  0.66063257  0.66658502  0.20022324     0.24400
C1195       C  0.66320661  0.69495973  0.21571805    -0.23600
C1196       C  0.69080152  0.69323480  0.23164319     0.19300
F1197       F  0.69457623  0.72076163  0.24641041    -0.13500
F1198       F  0.74548629  0.66617569  0.24520391    -0.15900
F1199       F  0.63380416  0.66719122  0.18492389    -0.15900
F1200       F  0.68578957  0.61400978  0.18283697    -0.13500
C1201       C  0.65717504  0.82728385  0.37972197     0.24500
C1202       C  0.68932410  0.84779966  0.37592039    -0.23600
C1203       C  0.70701342  0.86336477  0.39423340     0.19400
C1204       C  0.69047214  0.86322208  0.41479267     0.24400
C1205       C  0.65586679  0.84740537  0.41762677    -0.23600
C1206       C  0.64021730  0.82800672  0.40019039     0.19300
F1207       F  0.60812358  0.80997936  0.40285734    -0.13500
F1208       F  0.64254481  0.80511757  0.36428566    -0.15900
F1209       F  0.70738938  0.88069146  0.43156417    -0.15900
F1210       F  0.74006277  0.87983679  0.39212641    -0.13500
C1211       C  0.64053680  0.79151473  0.27295064     0.24500
C1212       C  0.65347067  0.80312196  0.25243211    -0.23600
C1213       C  0.68288113  0.82830384  0.25236793     0.19400
C1214       C  0.69750178  0.84228988  0.27183856     0.24400
C1215       C  0.68520231  0.82998114  0.29233769    -0.23600
C1216       C  0.65697092  0.80345902  0.29238245     0.19300
F1217       F  0.64552495  0.78759316  0.31115980    -0.13500
F1218       F  0.61147752  0.76880518  0.27466209    -0.15900
F1219       F  0.72366394  0.86825898  0.27016231    -0.15900
F1220       F  0.69891284  0.83905506  0.23349157    -0.13500
C1221       C  0.98610787  0.72572903  0.33308736     0.24500
C1222       C  0.96585012  0.70216444  0.31954406    -0.23600
C1223       C  0.98484835  0.67966425  0.30460661     0.19400
C1224       C  0.02338880  0.67804711  0.30487554     0.24400
C1225       C  0.04333134  0.69891875  0.32009823    -0.23600
C1226       C  0.02439173  0.72400558  0.33342592     0.19300
F1227       F  0.04291669  0.74443636  0.34828178    -0.13500
F1228       F  0.96859841  0.74769464  0.34769133    -0.15900
F1229       F  0.04091327  0.65339904  0.29190000    -0.15900
F1230       F  0.96606624  0.65634567  0.29149445    -0.13500
C1231       C  0.89068179  0.66688611  0.39110812     0.24500
C1232       C  0.87774837  0.64727463  0.37269811    -0.23600
C1233       C  0.86016355  0.61339280  0.37655025     0.19400
C1234       C  0.85977627  0.59813124  0.39746546     0.24400
C1235       C  0.87574063  0.61653500  0.41521230    -0.23600
C1236       C  0.88905385  0.65205677  0.41204531     0.19300
F1237       F  0.90218929  0.67199639  0.42905314    -0.13500
F1238       F  0.90583999  0.70051546  0.38877360    -0.15900
F1239       F  0.84428024  0.56476276  0.40020670    -0.15900
F1240       F  0.84275514  0.59451197  0.36065944    -0.13500
C1241       C  0.86855315  0.66263740  0.26855095     0.24500
C1242       C  0.85679420  0.64945782  0.28897661    -0.23600
C1243       C  0.82806811  0.62344264  0.28888995     0.19400
C1244       C  0.81405719  0.60920544  0.26935365     0.24400
C1245       C  0.82509817  0.62309386  0.24898983    -0.23600
C1246       C  0.85187589  0.65104816  0.24910445     0.19300
F1247       F  0.86169249  0.66842622  0.23048543    -0.13500
F1248       F  0.89656478  0.68662161  0.26693391    -0.15900
F1249       F  0.78996226  0.58124765  0.27079596    -0.15900
F1250       F  0.81202296  0.61214269  0.30765710    -0.13500
C1251       C  0.81815855  0.75559200  0.31112974     0.24500
C1252       C  0.84608461  0.75485303  0.32684492    -0.23600
C1253       C  0.84869624  0.78372255  0.34200747     0.19400
C1254       C  0.82247929  0.81163190  0.34231943     0.24400
C1255       C  0.79291662  0.81089750  0.32768377    -0.23600
C1256       C  0.79155248  0.78330695  0.31164331     0.19300
F1257       F  0.76236562  0.78087917  0.29806836    -0.13500
F1258       F  0.81431117  0.72736756  0.29685516    -0.15900
F1259       F  0.82438181  0.83799173  0.35797572    -0.15900
F1260       F  0.87516063  0.78342021  0.35753557    -0.13500
C1261       C  0.80435695  0.60837246  0.89054511     0.24500
C1262       C  0.82360623  0.60393722  0.87057664    -0.23600
C1263       C  0.86167628  0.59751727  0.87167982     0.19400
C1264       C  0.88002961  0.59792402  0.89160944     0.24400
C1265       C  0.86093350  0.60361362  0.91127545    -0.23600
C1266       C  0.82292134  0.60877411  0.91053630     0.19300
F1267       F  0.80329617  0.61236146  0.92927314    -0.13500
F1268       F  0.76732211  0.60915612  0.89124305    -0.15900
F1269       F  0.91624211  0.58958108  0.89168189    -0.15900
F1270       F  0.88117543  0.58831370  0.85357395    -0.13500
C1271       C  0.52331488  0.72347310  0.82245363     0.24500
C1272       C  0.54361346  0.75401013  0.81572468    -0.23600
C1273       C  0.52465563  0.78456275  0.80754460     0.19400
C1274       C  0.48616267  0.78541060  0.80742136     0.24400
C1275       C  0.46587160  0.75580914  0.81562195    -0.23600
C1276       C  0.48485014  0.72444135  0.82251072     0.19300
F1277       F  0.46616173  0.69626676  0.83151723    -0.13500
F1278       F  0.54074917  0.69417715  0.83114474    -0.15900
F1279       F  0.46874999  0.81652903  0.80127768    -0.15900
F1280       F  0.54342523  0.81495407  0.80165330    -0.13500
C1281       C  0.63560543  0.83534847  0.87206786     0.24500
C1282       C  0.63508878  0.79672326  0.87049329    -0.23600
C1283       C  0.63289313  0.77678346  0.89024116     0.19400
C1284       C  0.63251570  0.79466408  0.91053333     0.24400
C1285       C  0.63366730  0.83300194  0.91184474    -0.23600
C1286       C  0.63623462  0.85302023  0.89235954     0.19300
F1287       F  0.63640002  0.89014997  0.89274038    -0.13500
F1288       F  0.63238233  0.85664541  0.85409893    -0.15900
F1289       F  0.62893320  0.77430208  0.92888679    -0.15900
F1290       F  0.62826685  0.74000004  0.89016045    -0.13500
C1291       C  0.70158878  0.70102106  0.81605437     0.24500
C1292       C  0.66486796  0.69201555  0.82023980    -0.23600
C1293       C  0.65554251  0.65505937  0.82313343     0.19400
C1294       C  0.68282461  0.62782450  0.82289483     0.24400
C1295       C  0.71973613  0.63739492  0.82032427    -0.23600
C1296       C  0.72872341  0.67408087  0.81627457     0.19300
F1297       F  0.76427300  0.68436649  0.81462886    -0.13500
F1298       F  0.71175976  0.73651879  0.81405516    -0.15900
F1299       F  0.67364484  0.59258711  0.82698449    -0.15900
F1300       F  0.62061277  0.64576344  0.82804914    -0.13500
C1301       C  0.64828923  0.84921269  0.66654671     0.24500
C1302       C  0.68679542  0.84617900  0.66737226    -0.23600
C1303       C  0.70608414  0.84564799  0.64724639     0.19400
C1304       C  0.68737472  0.84667661  0.62731506     0.24400
C1305       C  0.64912322  0.84986133  0.62682403    -0.23600
C1306       C  0.62979468  0.84998830  0.64667183     0.19300
F1307       F  0.59289538  0.85416084  0.64704953    -0.13500
F1308       F  0.62829952  0.85475907  0.68497038    -0.15900
F1309       F  0.70702997  0.84679187  0.60847967    -0.15900
F1310       F  0.74304895  0.84788164  0.64644835    -0.13500
C1311       C  0.67799034  0.84755312  0.76626815     0.24500
C1312       C  0.68874319  0.82415741  0.74926537    -0.23600
C1313       C  0.68345178  0.78627087  0.75159090     0.19400
C1314       C  0.66807437  0.77203156  0.77076201     0.24400
C1315       C  0.65656078  0.79554398  0.78780190    -0.23600
C1316       C  0.66135986  0.83360622  0.78506439     0.19300
F1317       F  0.64876973  0.85772401  0.80023505    -0.13500
F1318       F  0.68216653  0.88424753  0.76428659    -0.15900
F1319       F  0.66557433  0.73519958  0.77273018    -0.15900
F1320       F  0.69403983  0.76290123  0.73545838    -0.13500
C1321       C  0.98078885  0.73757393  0.72379972     0.24500
C1322       C  0.96330919  0.70350130  0.72562397    -0.23600
C1323       C  0.98456566  0.67232772  0.72992606     0.19400
C1324       C  0.02271249  0.67440054  0.73003672     0.24400
C1325       C  0.04038663  0.70752050  0.72540461    -0.23600
C1326       C  0.01924337  0.73952934  0.72344643     0.19300
F1327       F  0.03563941  0.77182351  0.71879222    -0.13500
F1328       F  0.96079988  0.76817466  0.71991436    -0.15900
F1329       F  0.04247570  0.64311447  0.73196928    -0.15900
F1330       F  0.96846560  0.63907173  0.73163830    -0.13500
C1331       C  0.88097666  0.67742721  0.64952183     0.24500
C1332       C  0.87560736  0.65791645  0.66918263    -0.23600
C1333       C  0.87242811  0.61939630  0.66763289     0.19400
C1334       C  0.87192081  0.60169122  0.64737532     0.24400
C1335       C  0.87736850  0.62123849  0.62794764    -0.23600
C1336       C  0.88141988  0.65941884  0.62925287     0.19300
F1337       F  0.88804614  0.67931700  0.61102179    -0.13500
F1338       F  0.88835059  0.71377323  0.64982062    -0.15900
F1339       F  0.86847724  0.56473297  0.64703099    -0.15900
F1340       F  0.87316743  0.59783569  0.68556601    -0.13500
C1341       C  0.81416484  0.65684735  0.75388138     0.24500
C1342       C  0.85209353  0.65991700  0.75097722    -0.23600
C1343       C  0.87566580  0.64517327  0.76662931     0.19400
C1344       C  0.86158154  0.62800402  0.78516928     0.24400
C1345       C  0.82345495  0.62569507  0.78855070    -0.23600
C1346       C  0.79991643  0.64014550  0.77252965     0.19300
F1347       F  0.76309245  0.63915427  0.77499794    -0.13500
F1348       F  0.79085242  0.67035863  0.73867242    -0.15900
F1349       F  0.88537049  0.61264399  0.79944987    -0.15900
F1350       F  0.91238072  0.64599674  0.76348880    -0.13500
C1351       C  0.85277193  0.79768218  0.70192041     0.24500
C1352       C  0.84995106  0.76883637  0.71689326    -0.23600
C1353       C  0.82289953  0.77065501  0.73320957     0.19400
C1354       C  0.79652105  0.79855820  0.73291881     0.24400
C1355       C  0.79667935  0.82481185  0.71620053    -0.23600
C1356       C  0.82631467  0.82537070  0.70151831     0.19300
F1357       F  0.82773072  0.85083460  0.68548377    -0.13500
F1358       F  0.87938496  0.79719400  0.68643150    -0.15900
F1359       F  0.76848701  0.79715870  0.74739432    -0.15900
F1360       F  0.81928032  0.74321039  0.74785699    -0.13500
C1361       C  0.98237215  0.27569965  0.30352196     0.24500
C1362       C  0.96105427  0.24685484  0.31172671    -0.23600
C1363       C  0.97888754  0.21547512  0.31960068     0.19400
C1364       C  0.01721160  0.21404809  0.32069709     0.24400
C1365       C  0.03835191  0.24387166  0.31381056    -0.23600
C1366       C  0.02070663  0.27403239  0.30434345     0.19300
F1367       F  0.04048868  0.30350322  0.29800372    -0.13500
F1368       F  0.96614333  0.30723489  0.29708345    -0.15900
F1369       F  0.03353519  0.18519523  0.33060155    -0.15900
F1370       F  0.95910364  0.18816631  0.32874960    -0.13500
C1371       C  0.89354250  0.26990695  0.38571068     0.24500
C1372       C  0.87315435  0.28750276  0.36911908    -0.23600
C1373       C  0.85107534  0.31764739  0.37536017     0.19400
C1374       C  0.85349533  0.33248780  0.39642640     0.24400
C1375       C  0.87674080  0.31697329  0.41206658    -0.23600
C1376       C  0.89542157  0.28451578  0.40682036     0.19300
F1377       F  0.91763217  0.26818958  0.42163164    -0.13500
F1378       F  0.91325498  0.23921806  0.38121003    -0.15900
F1379       F  0.83328581  0.36256339  0.40145709    -0.15900
F1380       F  0.82637543  0.33278920  0.36170169    -0.13500
C1381       C  0.76374592  0.99488956  0.33172217     0.24500
C1382       C  0.73711485  0.01139145  0.31839311    -0.23600
C1383       C  0.71508061  0.98871002  0.30529819     0.19400
C1384       C  0.71805713  0.95037807  0.30652833     0.24400
C1385       C  0.74277318  0.93397996  0.32109474    -0.23600
C1386       C  0.76651370  0.95665254  0.33307547     0.19300
F1387       F  0.78982963  0.94174706  0.34781296    -0.13500
F1388       F  0.78451059  0.01584488  0.34519601    -0.15900
F1389       F  0.69357634  0.92938037  0.29558487    -0.15900
F1390       F  0.68779845  0.00341478  0.29323362    -0.13500
C1391       C  0.70117332  0.11314801  0.38839414     0.24500
C1392       C  0.68334515  0.10574125  0.36826920    -0.23600
C1393       C  0.64533615  0.09874341  0.36903709     0.19400
C1394       C  0.62608625  0.09922674  0.38877048     0.24400
C1395       C  0.64413994  0.10570243  0.40867399    -0.23600
C1396       C  0.68159369  0.11400263  0.40813801     0.19300
F1397       F  0.69993376  0.12106221  0.42694161    -0.13500
F1398       F  0.73797754  0.11632477  0.38973698    -0.15900
F1399       F  0.58993704  0.09088453  0.38836625    -0.15900
F1400       F  0.62673330  0.08901047  0.35075880    -0.13500
C1401       C  0.82379145  0.12685478  0.33469227     0.24500
C1402       C  0.79486629  0.12699095  0.31959274    -0.23600
C1403       C  0.79595481  0.15205931  0.30224815     0.19400
C1404       C  0.82244268  0.17986347  0.30190117     0.24400
C1405       C  0.84855169  0.18245327  0.31868526    -0.23600
C1406       C  0.85058527  0.15407836  0.33410036     0.19300
F1407       F  0.87654725  0.15478655  0.34992411    -0.13500
F1408       F  0.82417947  0.10229540  0.35125213    -0.15900
F1409       F  0.81974433  0.20658532  0.28670048    -0.15900
F1410       F  0.76898399  0.15236169  0.28709041    -0.13500
C1411       C  0.51994306  0.22815130  0.21833246     0.24500
C1412       C  0.54022541  0.19621571  0.22250919    -0.23600
C1413       C  0.52129644  0.16456687  0.22892526     0.19400
C1414       C  0.48287731  0.16415405  0.22961290     0.24400
C1415       C  0.46244191  0.19533744  0.22383682    -0.23600
C1416       C  0.48140740  0.22768685  0.21889497     0.19300
F1417       F  0.46263247  0.25762442  0.21217446    -0.13500
F1418       F  0.53734652  0.25872489  0.21145159    -0.15900
F1419       F  0.46553206  0.13212489  0.23368984    -0.15900
F1420       F  0.53992971  0.13301416  0.23253904    -0.13500
C1421       C  0.65152457  0.12840103  0.15935206     0.24500
C1422       C  0.63132977  0.16034585  0.16488627    -0.23600
C1423       C  0.61347406  0.17882766  0.14762919     0.19400
C1424       C  0.61191242  0.16374731  0.12658806     0.24400
C1425       C  0.62851612  0.12987412  0.12202568    -0.23600
C1426       C  0.64980003  0.11345167  0.13830809     0.19300
F1427       F  0.66826718  0.08192252  0.13410676    -0.13500
F1428       F  0.67301436  0.11061657  0.17373980    -0.15900
F1429       F  0.59219865  0.18137843  0.11108362    -0.15900
F1430       F  0.59594912  0.21106052  0.15136642    -0.13500
C1431       C  0.65879969  0.11589050  0.25042850     0.24500
C1432       C  0.65374867  0.15417096  0.24843331    -0.23600
C1433       C  0.66554511  0.17658501  0.26583994     0.19400
C1434       C  0.68179250  0.16126544  0.28445974     0.24400
C1435       C  0.68718866  0.12322928  0.28614366    -0.23600
C1436       C  0.67597159  0.10084346  0.26880378     0.19300
F1437       F  0.68017257  0.06409420  0.27000340    -0.13500
F1438       F  0.64580282  0.09253470  0.23501697    -0.15900
F1439       F  0.69284559  0.18379504  0.30084021    -0.15900
F1440       F  0.66223945  0.21347206  0.26481754    -0.13500
C1441       C  0.73999245  0.45907395  0.21223478     0.24500
C1442       C  0.76975306  0.43931219  0.22070255    -0.23600
C1443       C  0.79839859  0.45878724  0.23067470     0.19400
C1444       C  0.79848128  0.49727813  0.23077782     0.24400
C1445       C  0.77011309  0.51704520  0.22070158    -0.23600
C1446       C  0.74029818  0.49754335  0.21207547     0.19300
F1447       F  0.71337036  0.51566179  0.20137302    -0.13500
F1448       F  0.71245222  0.44105586  0.20201574    -0.15900
F1449       F  0.82830192  0.51518447  0.23847351    -0.15900
F1450       F  0.82818503  0.44056526  0.23818302    -0.13500
C1451       C  0.81200742  0.35517482  0.12525820     0.24500
C1452       C  0.85012272  0.35171475  0.12315223    -0.23600
C1453       C  0.87112994  0.34792546  0.14221798     0.19400
C1454       C  0.85472323  0.34817053  0.16286005     0.24400
C1455       C  0.81627586  0.35032006  0.16522185    -0.23600
C1456       C  0.79536808  0.35491726  0.14594061     0.19300
F1457       F  0.75887456  0.36152325  0.14703539    -0.13500
F1458       F  0.79082589  0.36046072  0.10735789    -0.15900
F1459       F  0.87729312  0.34983708  0.18036393    -0.15900
F1460       F  0.90821683  0.34736525  0.14112686    -0.13500
C1461       C  0.81032300  0.30082443  0.28445570     0.24500
C1462       C  0.84814909  0.29452867  0.28623324    -0.23600
C1463       C  0.87100637  0.30584625  0.26920299     0.19400
C1464       C  0.85651633  0.32316544  0.25074128     0.24400
C1465       C  0.81832474  0.32811029  0.24829049    -0.23600
C1466       C  0.79546961  0.31666220  0.26557691     0.19300
F1467       F  0.75859274  0.31947694  0.26414031    -0.13500
F1468       F  0.78753018  0.29088405  0.30090352    -0.15900
F1469       F  0.88027843  0.33605035  0.23559424    -0.15900
F1470       F  0.90770450  0.30141927  0.27078643    -0.13500
C1471       C  0.72303733  0.27992490  0.22055442     0.24500
C1472       C  0.71368397  0.31637031  0.21590308    -0.23600
C1473       C  0.67669446  0.32522806  0.21247491     0.19400
C1474       C  0.64978037  0.29769205  0.21268601     0.24400
C1475       C  0.65948709  0.26104425  0.21668795    -0.23600
C1476       C  0.69630127  0.25268645  0.22102515     0.19300
F1477       F  0.70705539  0.21733048  0.22316058    -0.13500
F1478       F  0.75868529  0.26997518  0.22236430    -0.15900
F1479       F  0.61491390  0.30626053  0.20709586    -0.15900
F1480       F  0.66714080  0.35992226  0.20711711    -0.13500
C1481       C  0.99027796  0.22386462  0.72197271     0.24500
C1482       C  0.96914934  0.25597959  0.72075932    -0.23600
C1483       C  0.98681998  0.28997504  0.72257021     0.19400
C1484       C  0.02499896  0.29195020  0.72342650     0.24400
C1485       C  0.04641348  0.25992670  0.72284900    -0.23600
C1486       C  0.02869805  0.22585452  0.72333159     0.19300
F1487       F  0.04871429  0.19457971  0.72268316    -0.13500
F1488       F  0.97412173  0.19076978  0.71943910    -0.15900
F1489       F  0.04122250  0.32529161  0.72277396    -0.15900
F1490       F  0.96714542  0.32146295  0.72140251    -0.13500
C1491       C  0.69839258  0.99761286  0.72466812     0.24500
C1492       C  0.73119955  0.01520724  0.71905336    -0.23600
C1493       C  0.76305640  0.99405993  0.71636653     0.19400
C1494       C  0.76153808  0.95570703  0.71776370     0.24400
C1495       C  0.72815052  0.93801514  0.72182442    -0.23600
C1496       C  0.69689703  0.95940596  0.72610517     0.19300
F1497       F  0.66409641  0.94307812  0.72953053    -0.13500
F1498       F  0.66700759  0.01726061  0.72672265    -0.15900
F1499       F  0.79167897  0.93568624  0.71263420    -0.15900
F1500       F  0.79471541  0.01022155  0.71010834    -0.13500
C1501       C  0.70608306  0.12137716  0.64461991     0.24500
C1502       C  0.69083068  0.10779173  0.66432122    -0.23600
C1503       C  0.65369734  0.09714486  0.66398204     0.19400
C1504       C  0.63302249  0.09898461  0.64495137     0.24400
C1505       C  0.64894572  0.11026084  0.62521640    -0.23600
C1506       C  0.68524762  0.12253616  0.62539650     0.19300
F1507       F  0.70108305  0.13467738  0.60672897    -0.13500
F1508       F  0.74143967  0.13169737  0.64301618    -0.15900
F1509       F  0.59786167  0.08719461  0.64569683    -0.15900
F1510       F  0.63749934  0.08312480  0.68207413    -0.13500
C1511       C  0.80234830  0.15410715  0.73050652     0.24500
C1512       C  0.80218551  0.12761535  0.71374922    -0.23600
C1513       C  0.83224393  0.12576008  0.69942916     0.19400
C1514       C  0.85962098  0.15239758  0.70020750     0.24400
C1515       C  0.85713507  0.18183115  0.71503763    -0.23600
C1516       C  0.82952467  0.18120279  0.73106106     0.19300
F1517       F  0.82604367  0.20928912  0.74547282    -0.13500
F1518       F  0.77386515  0.15663479  0.74464945    -0.15900
F1519       F  0.88643400  0.15179263  0.68484037    -0.15900
F1520       F  0.83315190  0.10024867  0.68324540    -0.13500
C1521       C  0.52899383  0.23782829  0.82076971     0.24500
C1522       C  0.54609753  0.20658932  0.81196457    -0.23600
C1523       C  0.52424519  0.17893655  0.80279953     0.19400
C1524       C  0.48597104  0.18087576  0.80437654     0.24400
C1525       C  0.46900032  0.21057016  0.81501318    -0.23600
C1526       C  0.49072127  0.23975676  0.82237696     0.19300
F1527       F  0.47509579  0.26845118  0.83303173    -0.13500
F1528       F  0.54952686  0.26468787  0.82991119    -0.15900
F1529       F  0.46562069  0.15200623  0.79757144    -0.15900
F1530       F  0.54003726  0.14840318  0.79427223    -0.13500
C1531       C  0.63392864  0.16026528  0.90609395     0.24500
C1532       C  0.62939551  0.12220187  0.90727663    -0.23600
C1533       C  0.62901167  0.10194495  0.88767381     0.19400
C1534       C  0.63090914  0.11936947  0.86744133     0.24400
C1535       C  0.63510546  0.15772397  0.86596538    -0.23600
C1536       C  0.63616724  0.17786636  0.88582593     0.19300
F1537       F  0.63639680  0.21492803  0.88599308    -0.13500
F1538       F  0.63400906  0.18097048  0.92455374    -0.15900
F1539       F  0.62599568  0.09844133  0.84932674    -0.15900
F1540       F  0.62462174  0.06509022  0.88788560    -0.13500
C1541       C  0.66964635  0.17966290  0.76648267     0.24500
C1542       C  0.65762281  0.15652592  0.78340491    -0.23600
C1543       C  0.66279248  0.11836881  0.78078988     0.19400
C1544       C  0.68083278  0.10414282  0.76240029     0.24400
C1545       C  0.69215781  0.12734662  0.74559026    -0.23600
C1546       C  0.68612352  0.16512970  0.74769592     0.19300
F1547       F  0.69708118  0.18819026  0.73166534    -0.13500
F1548       F  0.66674345  0.21651490  0.76817516    -0.15900
F1549       F  0.68603426  0.06748602  0.76068270    -0.15900
F1550       F  0.64935392  0.09448261  0.79565353    -0.13500
C1551       C  0.74743529  0.45668953  0.82586675     0.24500
C1552       C  0.77436208  0.43781086  0.81387428    -0.23600
C1553       C  0.79908914  0.45797560  0.80111825     0.19400
C1554       C  0.79949769  0.49642976  0.80238948     0.24400
C1555       C  0.77462707  0.51506964  0.81606635    -0.23600
C1556       C  0.74767233  0.49493988  0.82703031     0.19300
F1557       F  0.72387697  0.51222085  0.84066432    -0.13500
F1558       F  0.72320069  0.43786648  0.83826905    -0.15900
F1559       F  0.82651984  0.51511845  0.79214554    -0.15900
F1560       F  0.82513175  0.44035525  0.78921611    -0.13500
C1561       C  0.88198776  0.35238285  0.88851297     0.24500
C1562       C  0.86201582  0.35095920  0.90812885    -0.23600
C1563       C  0.82377447  0.34793437  0.90703949     0.19400
C1564       C  0.80583133  0.34717425  0.88683088     0.24400
C1565       C  0.82576999  0.34882482  0.86699303    -0.23600
C1566       C  0.86414845  0.35286531  0.86839694     0.19300
F1567       F  0.88466019  0.36024259  0.85046938    -0.13500
F1568       F  0.91891670  0.35612139  0.88867040    -0.15900
F1569       F  0.76875672  0.34770782  0.88702362    -0.15900
F1570       F  0.80338302  0.34755587  0.92558468    -0.13500
C1571       C  0.86613748  0.32429626  0.78188543     0.24500
C1572       C  0.82783134  0.32825461  0.78457019    -0.23600
C1573       C  0.80489145  0.31496875  0.76787166     0.19400
C1574       C  0.81963718  0.29813434  0.74928611     0.24400
C1575       C  0.85753244  0.29324894  0.74706034    -0.23600
C1576       C  0.88070523  0.30623168  0.76354964     0.19300
F1577       F  0.91751831  0.30260286  0.76154797    -0.13500
F1578       F  0.88971859  0.33878675  0.79666004    -0.15900
F1579       F  0.79666778  0.28580345  0.73351290    -0.15900
F1580       F  0.76800941  0.31693611  0.76962909    -0.13500
C1581       C  0.68541971  0.32530596  0.82100196     0.24500
C1582       C  0.72189817  0.31595043  0.81625390    -0.23600
C1583       C  0.73018835  0.27984931  0.81002063     0.19400
C1584       C  0.70295156  0.25317398  0.80955446     0.24400
C1585       C  0.66686617  0.26185988  0.81558141    -0.23600
C1586       C  0.65802786  0.29835917  0.82072010     0.19300
F1587       F  0.62364679  0.30720816  0.82728432    -0.13500
F1588       F  0.67698868  0.35970587  0.82777806    -0.15900
F1589       F  0.71271675  0.21791056  0.80565566    -0.15900
F1590       F  0.76544341  0.26947104  0.80674269    -0.13500
C1591       C  0.89423242  0.28439659  0.62563330     0.24500
C1592       C  0.87488959  0.31686215  0.62157243    -0.23600
C1593       C  0.85186073  0.33090738  0.63796372     0.19400
C1594       C  0.85131485  0.31523671  0.65878861     0.24400
C1595       C  0.87529294  0.28603161  0.66396411    -0.23600
C1596       C  0.89459529  0.26932730  0.64652962     0.19300
F1597       F  0.91570197  0.23930120  0.64999603    -0.13500
F1598       F  0.91522164  0.26865025  0.60985747    -0.15900
F1599       F  0.82664527  0.32864402  0.67325835    -0.15900
F1600       F  0.83036323  0.36045492  0.63400183    -0.13500
loop_ 
_geom_bond_atom_site_label_1 
_geom_bond_atom_site_label_2 
_geom_bond_distance 
_geom_bond_site_symmetry_2 
_ccdc_geom_bond_type 
In1           O3   2.269       .  S
In1           O4   2.241       .  S
In1          O12   2.258       .  S
In1           O6   2.249       .  S
In1           O8   2.271       .  S
In1           O9   2.235       .  S
In1          O10   2.233       .  S
In1          O13   2.264       .  S
C2            O8   1.262       .  A
C2           O10   1.257       .  A
C2          C163   1.465       .  S
O3           C11   1.262       .  A
O4           C11   1.258       .  A
C5           O12   1.258       .  A
C5            O6   1.257       .  A
C5         C1592   1.480       .  S
C7            O9   1.259       .  A
C7           O13   1.262       .  A
C7          C411   1.462   1_655  S
C11         C255   1.468       .  S
C14          C15   1.537       .  S
C14          C20   1.526       .  S
C14          C18   1.541       .  S
C14        C1565   1.536       .  S
C15          H22   1.085       .  S
C15          C16   1.367       .  D
C16          C17   1.549       .  S
C16        C1582   1.484       .  S
C17          C21   1.546       .  S
C17          C19   1.553       .  S
C17          H23   1.108       .  S
C18          H24   1.084       .  S
C18          C19   1.369       .  D
C19        C1572   1.501       .  S
C20          H25   1.087       .  S
C20          C21   1.361       .  D
C21        C1552   1.487       .  S
C26          C27   1.542       .  S
C26          C32   1.527       .  S
C26          C30   1.537       .  S
C26        C1535   1.541       .  S
C27          H34   1.084       .  S
C27          C28   1.373       .  D
C28          C29   1.553       .  S
C28        C1542   1.503       .  S
C29          C33   1.546       .  S
C29          C31   1.548       .  S
C29          H35   1.108       .  S
C30          H36   1.085       .  S
C30          C31   1.367       .  D
C31        C1585   1.484       .  S
C32          H37   1.087       .  S
C32          C33   1.360       .  D
C33        C1522   1.486       .  S
C38          C39   1.537       .  S
C38          C44   1.535       .  S
C38          C42   1.541       .  S
C38        C1502   1.540       .  S
C39          H46   1.087       .  S
C39          C40   1.363       .  D
C40          C41   1.543       .  S
C40        C1545   1.482       .  S
C41          C45   1.546       .  S
C41          C43   1.548       .  S
C41          H47   1.111       .  S
C42          H48   1.079       .  S
C42          C43   1.371       .  D
C43        C1512   1.491       .  S
C44          H49   1.087       .  S
C44          C45   1.363       .  D
C45        C1492   1.487       .  S
C50          C51   1.527       .  S
C50          C56   1.534       .  S
C50          C54   1.544       .  S
C50        C1595   1.538       .  S
C51          H58   1.087       .  S
C51          C52   1.365       .  D
C52          C53   1.552       .  S
C52        C1515   1.490       .  S
C53          C57   1.551       .  S
C53          C55   1.543       .  S
C53          H59   1.111       .  S
C54          H60   1.079       .  S
C54          C55   1.366       .  D
C55        C1575   1.483       .  S
C56          H61   1.087       .  S
C56          C57   1.365       .  D
C57        C1482   1.490       .  S
In62         O64   2.266       .  S
In62         O65   2.228       .  S
In62         O73   2.236       .  S
In62         O67   2.285       .  S
In62         O69   2.241       .  S
In62         O70   2.212       .  S
In62         O71   2.269       .  S
In62         O74   2.266       .  S
C63          O69   1.258   1_554  A
C63          O71   1.261   1_554  A
C63         C150   1.468       .  S
O64          C72   1.262       .  A
O65          C72   1.257       .  A
C66          O73   1.254       .  A
C66          O67   1.262       .  A
C66        C1532   1.490       .  S
C68          O70   1.259   1_565  A
C68          O74   1.265   1_565  A
C68         C285   1.461       .  S
C72         C468   1.458       .  S
In75         O77   2.264       .  S
In75         O78   2.241       .  S
In75         O86   2.225       .  S
In75         O80   2.273       .  S
In75         O82   2.248       .  S
In75         O83   2.207       .  S
In75         O84   2.254       .  S
In75         O87   2.270       .  S
C76          O82   1.260       .  A
C76          O84   1.260       .  A
C76         C189   1.467       .  S
O77          C85   1.260       .  A
O78          C85   1.258       .  A
C79          O86   1.255       .  A
C79          O80   1.262       .  A
C79        C1505   1.482       .  S
C81          O83   1.257       .  A
C81          O87   1.264       .  A
C81         C498   1.458       .  S
C85         C268   1.462   1_545  S
In88         O90   2.264       .  S
In88         O91   2.209       .  S
In88         O99   2.240       .  S
In88         O93   2.266       .  S
In88         O95   2.238       .  S
In88         O96   2.256       .  S
In88         O97   2.264       .  S
In88        O100   2.235       .  S
C89          O95   1.258   1_554  A
C89          O97   1.262   1_554  A
C89         C176   1.468       .  S
O90          C98   1.264       .  A
O91          C98   1.258       .  A
C92          O99   1.256       .  A
C92          O93   1.260       .  A
C92        C1562   1.485       .  S
C94          O96   1.261       .  A
C94         O100   1.257       .  A
C94         C298   1.458       .  S
C98         C481   1.457   1_655  S
C101        C102   1.547       .  S
C101        C107   1.526       .  S
C101        C105   1.535       .  S
C101       C1455   1.542       .  S
C102        H109   1.082       .  S
C102        C103   1.374       .  D
C103        C104   1.553       .  S
C103       C1465   1.510       .  S
C104        C108   1.552       .  S
C104        C106   1.554       .  S
C104        H110   1.108       .  S
C105        H111   1.087       .  S
C105        C106   1.367       .  D
C106       C1472   1.490       .  S
C107        H112   1.087       .  S
C107        C108   1.360       .  D
C108       C1442   1.493       .  S
C113        C114   1.529       .  S
C113        C119   1.534       .  S
C113        C117   1.549       .  S
C113       C1422   1.546       .  S
C114        H121   1.087       .  S
C114        C115   1.364       .  D
C115        C116   1.556       .  S
C115       C1475   1.489       .  S
C116        C120   1.554       .  S
C116        C118   1.552       .  S
C116        H122   1.108       .  S
C117        H123   1.072       .  S
C117        C118   1.371       .  D
C118       C1432   1.510       .  S
C119        H124   1.087       .  S
C119        C120   1.363       .  D
C120       C1412   1.496       .  S
C125        C126   1.541       .  S
C125        C131   1.530       .  S
C125        C129   1.539       .  S
C125       C1392   1.544       .  S
C126        H133   1.082       .  S
C126        C127   1.370       .  D
C127        C128   1.549       .  S
C127       C1402   1.491       .  S
C128        C132   1.555       .  S
C128        C130   1.553       .  S
C128        H134   1.110       .  S
C129        H135   1.086       .  S
C129        C130   1.366       .  D
C130       C1435   1.495       .  S
C131        H136   1.087       .  S
C131        C132   1.363       .  D
C132       C1382   1.496       .  S
C137        C138   1.548       .  S
C137        C143   1.533       .  S
C137        C141   1.529       .  S
C137       C1372   1.539       .  S
C138        H145   1.079       .  S
C138        C139   1.368       .  D
C139        C140   1.550       .  S
C139       C1462   1.492       .  S
C140        C144   1.551       .  S
C140        C142   1.550       .  S
C140        H146   1.110       .  S
C141        H147   1.087       .  S
C141        C142   1.366       .  D
C142       C1405   1.493       .  S
C143        H148   1.087       .  S
C143        C144   1.360       .  D
C144       C1362   1.487       .  S
In149       O151   2.262       .  S
In149       O152   2.237       .  S
In149       O160   2.247       .  S
In149       O154   2.262       .  S
In149       O156   2.238       .  S
In149       O157   2.235       .  S
In149       O158   2.270       .  S
In149       O161   2.244       .  S
C150        O156   1.258       .  A
C150        O158   1.262       .  A
O151        C159   1.263   1_545  A
O152        C159   1.257   1_545  A
C153        O160   1.258       .  A
C153        O154   1.258       .  A
C153       C1425   1.485       .  S
C155        O157   1.259       .  A
C155        O161   1.260       .  A
C155        C572   1.454       .  S
C159        C368   1.463       .  S
In162       O164   2.226       .  S
In162       O165   2.259       .  S
In162       O173   2.247       .  S
In162       O167   2.260       .  S
In162       O169   2.269       .  S
In162       O170   2.234       .  S
In162       O171   2.232       .  S
In162       O174   2.256       .  S
C163        O169   1.261       .  A
C163        O171   1.256       .  A
O164        C172   1.257       .  A
O165        C172   1.260       .  A
C166        O173   1.258       .  A
C166        O167   1.259       .  A
C166       C1375   1.480       .  S
C168        O170   1.261       .  A
C168        O174   1.263       .  A
C168        C385   1.464       .  S
C172        C581   1.456   1_655  S
In175       O177   2.238       .  S
In175       O178   2.256       .  S
In175       O186   2.243       .  S
In175       O180   2.270       .  S
In175       O182   2.245       .  S
In175       O183   2.231       .  S
In175       O184   2.265       .  S
In175       O187   2.267       .  S
C176        O182   1.259       .  A
C176        O184   1.260       .  A
O177        C185   1.259       .  A
O178        C185   1.260       .  A
C179        O186   1.258       .  A
C179        O180   1.260       .  A
C179       C1452   1.488       .  S
C181        O183   1.257       .  A
C181        O187   1.262       .  A
C181        C559   1.462   1_655  S
C185        C355   1.459       .  S
In188       O190   2.278       .  S
In188       O191   2.208       .  S
In188       O199   2.238       .  S
In188       O193   2.277       .  S
In188       O195   2.247       .  S
In188       O196   2.241       .  S
In188       O197   2.254       .  S
In188       O200   2.267       .  S
C189        O195   1.260       .  A
C189        O197   1.261       .  A
O190        C198   1.264       .  A
O191        C198   1.256       .  A
C192        O199   1.256       .  A
C192        O193   1.262       .  A
C192       C1395   1.489       .  S
C194        O196   1.257   1_565  A
C194        O200   1.261   1_565  A
C194        C398   1.462       .  S
C198        C594   1.460       .  S
C201        C202   1.541       .  S
C201        C207   1.531       .  S
C201        C205   1.537       .  S
C201       C1332   1.539       .  S
C202        H209   1.083       .  S
C202        C203   1.362       .  D
C203        C204   1.542       .  S
C203       C1342   1.476       .  S
C204        C208   1.543       .  S
C204        C206   1.546       .  S
C204        H210   1.111       .  S
C205        H211   1.086       .  S
C205        C206   1.370       .  D
C206       C1352   1.486       .  S
C207        H212   1.087       .  S
C207        C208   1.365       .  D
C208       C1322   1.486       .  S
C213        C214   1.537       .  S
C213        C219   1.527       .  S
C213        C217   1.542       .  S
C213       C1302   1.534       .  S
C214        H221   1.084       .  S
C214        C215   1.369       .  D
C215        C216   1.548       .  S
C215       C1355   1.489       .  S
C216        C220   1.549       .  S
C216        C218   1.548       .  S
C216        H222   1.111       .  S
C217        H223   1.085       .  S
C217        C218   1.366       .  D
C218       C1312   1.487       .  S
C219        H224   1.087       .  S
C219        C220   1.359       .  D
C220       C1495   1.487       .  S
C225        C226   1.535       .  S
C225        C231   1.526       .  S
C225        C229   1.543       .  S
C225       C1282   1.539       .  S
C226        H233   1.086       .  S
C226        C227   1.367       .  D
C227        C228   1.553       .  S
C227       C1292   1.488       .  S
C228        C232   1.553       .  S
C228        C230   1.551       .  S
C228        H234   1.109       .  S
C229        H235   1.084       .  S
C229        C230   1.372       .  D
C230       C1315   1.503       .  S
C231        H236   1.087       .  S
C231        C232   1.360       .  D
C232       C1272   1.493       .  S
C237        C238   1.541       .  S
C237        C243   1.527       .  S
C237        C241   1.537       .  S
C237       C1262   1.534       .  S
C238        H245   1.085       .  S
C238        C239   1.370       .  D
C239        C240   1.546       .  S
C239       C1345   1.493       .  S
C240        C244   1.546       .  S
C240        C242   1.547       .  S
C240        H246   1.109       .  S
C241        H247   1.085       .  S
C241        C242   1.367       .  D
C242       C1295   1.484       .  S
C243        H248   1.087       .  S
C243        C244   1.360       .  D
C244       C1555   1.486       .  S
In249       O251   2.264       .  S
In249       O252   2.232       .  S
In249       O260   2.243       .  S
In249       O254   2.270       .  S
In249       O256   2.232       .  S
In249       O257   2.234       .  S
In249       O258   2.263       .  S
In249       O261   2.261       .  S
C250        O256   1.257       .  A
C250        O258   1.260       .  A
C250        C376   1.462       .  S
O251        C259   1.260       .  A
O252        C259   1.256       .  A
C253        O260   1.257       .  A
C253        O254   1.259       .  A
C253       C1335   1.488       .  S
C255        O257   1.261       .  A
C255        O261   1.264       .  A
C259        C681   1.458   1_655  S
In262       O264   2.247       .  S
In262       O265   2.238       .  S
In262       O273   2.236       .  S
In262       O267   2.264       .  S
In262       O269   2.238       .  S
In262       O270   2.239       .  S
In262       O271   2.250       .  S
In262       O274   2.263       .  S
C263        O269   1.259       .  A
C263        O271   1.260       .  A
C263        C389   1.460       .  S
O264        C272   1.262       .  A
O265        C272   1.261       .  A
C266        O273   1.256       .  A
C266        O267   1.259       .  A
C266       C1305   1.482       .  S
C268        O270   1.257       .  A
C268        O274   1.261       .  A
C272        C607   1.461       .  S
In275       O277   2.263       .  S
In275       O278   2.215       .  S
In275       O286   2.248       .  S
In275       O280   2.264       .  S
In275       O282   2.244       .  S
In275       O283   2.254       .  S
In275       O284   2.255       .  S
In275       O287   2.253       .  S
C276        O282   1.258   1_554  A
C276        O284   1.260   1_554  A
C276        C363   1.464       .  S
O277        C285   1.264       .  A
O278        C285   1.260       .  A
C279        O286   1.256       .  A
C279        O280   1.259       .  A
C279       C1285   1.486       .  S
C281        O283   1.258       .  A
C281        O287   1.259       .  A
C281        C698   1.463       .  S
In288       O290   2.238       .  S
In288       O291   2.252       .  S
In288       O299   2.230       .  S
In288       O293   2.260       .  S
In288       O295   2.232       .  S
In288       O296   2.221       .  S
In288       O297   2.260       .  S
In288       O300   2.265       .  S
C289        O295   1.257   1_554  A
C289        O297   1.261   1_554  A
C289        C350   1.462       .  S
O290        C298   1.259       .  A
O291        C298   1.259       .  A
C292        O299   1.256       .  A
C292        O293   1.260       .  A
C292       C1265   1.479       .  S
C294        O296   1.259       .  A
C294        O300   1.263       .  A
C294        C672   1.461   1_655  S
C301        C302   1.530       .  S
C301        C307   1.529       .  S
C301        C305   1.544       .  S
C301       C1232   1.539       .  S
C302        H309   1.087       .  S
C302        C303   1.359       .  D
C303        C304   1.541       .  S
C303       C1252   1.482       .  S
C304        C308   1.556       .  S
C304        C306   1.558       .  S
C304        H310   1.104       .  S
C305        H311   1.073       .  S
C305        C306   1.375       .  D
C306       C1242   1.517       .  S
C307        H312   1.087       .  S
C307        C308   1.364       .  D
C308       C1222   1.492       .  S
C313        C314   1.543       .  S
C313        C319   1.530       .  S
C313        C317   1.525       .  S
C313       C1202   1.532       .  S
C314        H321   1.077       .  S
C314        C315   1.373       .  D
C315        C316   1.557       .  S
C315       C1215   1.516       .  S
C316        C320   1.558       .  S
C316        C318   1.544       .  S
C316        H322   1.104       .  S
C317        H323   1.087       .  S
C317        C318   1.360       .  D
C318       C1255   1.483       .  S
C319        H324   1.087       .  S
C319        C320   1.363       .  D
C320       C1385   1.492       .  S
C325        C326   1.528       .  S
C325        C331   1.532       .  S
C325        C329   1.543       .  S
C325       C1182   1.536       .  S
C326        H333   1.087       .  S
C326        C327   1.361       .  D
C327        C328   1.546       .  S
C327       C1192   1.490       .  S
C328        C332   1.557       .  S
C328        C330   1.558       .  S
C328        H334   1.105       .  S
C329        H335   1.078       .  S
C329        C330   1.374       .  D
C330       C1245   1.514       .  S
C331        H336   1.087       .  S
C331        C332   1.362       .  D
C332       C1445   1.493       .  S
C337        C338   1.545       .  S
C337        C343   1.528       .  S
C337        C341   1.528       .  S
C337       C1175   1.538       .  S
C338        H345   1.076       .  S
C338        C339   1.379       .  D
C339        C340   1.561       .  S
C339       C1212   1.517       .  S
C340        C344   1.556       .  S
C340        C342   1.543       .  S
C340        H346   1.105       .  S
C341        H347   1.087       .  S
C341        C342   1.359       .  D
C342       C1195   1.488       .  S
C343        H348   1.087       .  S
C343        C344   1.361       .  D
C344       C1162   1.491       .  S
In349       O351   2.256       .  S
In349       O352   2.227       .  S
In349       O360   2.240       .  S
In349       O354   2.248       .  S
In349       O356   2.228       .  S
In349       O357   2.258       .  S
In349       O358   2.257       .  S
In349       O361   2.239       .  S
C350        O356   1.258       .  A
C350        O358   1.262       .  A
O351        C359   1.261       .  A
O352        C359   1.259       .  A
C353        O360   1.256       .  A
C353        O354   1.259       .  A
C353       C1185   1.475       .  S
C355        O357   1.259       .  A
C355        O361   1.258       .  A
C359        C755   1.460   1_655  S
In362       O364   2.256       .  S
In362       O365   2.246       .  S
In362       O373   2.251       .  S
In362       O367   2.252       .  S
In362       O369   2.249       .  S
In362       O370   2.239       .  S
In362       O371   2.252       .  S
In362       O374   2.256       .  S
C363        O369   1.259       .  A
C363        O371   1.258       .  A
O364        C372   1.259       .  A
O365        C372   1.259       .  A
C366        O373   1.258       .  A
C366        O367   1.259       .  A
C366       C1172   1.483       .  S
C368        O370   1.260       .  A
C368        O374   1.260       .  A
C372        C781   1.461       .  S
In375       O377   2.259       .  S
In375       O378   2.234       .  S
In375       O386   2.249       .  S
In375       O380   2.252       .  S
In375       O382   2.234       .  S
In375       O383   2.250       .  S
In375       O384   2.265       .  S
In375       O387   2.257       .  S
C376        O382   1.257       .  A
C376        O384   1.260       .  A
O377        C385   1.263       .  A
O378        C385   1.260       .  A
C379        O386   1.257       .  A
C379        O380   1.258       .  A
C379       C1235   1.481       .  S
C381        O383   1.259       .  A
C381        O387   1.260       .  A
C381        C798   1.464   1_655  S
In388       O390   2.261       .  S
In388       O391   2.241       .  S
In388       O399   2.243       .  S
In388       O393   2.245       .  S
In388       O395   2.239       .  S
In388       O396   2.229       .  S
In388       O397   2.252       .  S
In388       O400   2.265       .  S
C389        O395   1.258       .  A
C389        O397   1.260       .  A
O390        C398   1.260       .  A
O391        C398   1.259       .  A
C392        O399   1.257       .  A
C392        O393   1.258       .  A
C392       C1205   1.476       .  S
C394        O396   1.259       .  A
C394        O400   1.263       .  A
C394        C772   1.464       .  S
In401       O403   2.260       .  S
In401       O404   2.234       .  S
In401       O412   2.245       .  S
In401       O406   2.245       .  S
In401       O408   2.248       .  S
In401       O409   2.242       .  S
In401       O410   2.258       .  S
In401       O413   2.267       .  S
C402        O408   1.257       .  A
C402        O410   1.259       .  A
C402        C576   1.464       .  S
O403        C411   1.262       .  A
O404        C411   1.260       .  A
C405        O412   1.257       .  A
C405        O406   1.257       .  A
C405       C1152   1.478       .  S
C407        O409   1.258       .  A
C407        O413   1.261       .  A
C407        C685   1.466       .  S
C414        C415   1.538       .  S
C414        C420   1.529       .  S
C414        C418   1.538       .  S
C414       C1122   1.537       .  S
C415        H422   1.086       .  S
C415        C416   1.369       .  D
C416        C417   1.550       .  S
C416       C1145   1.493       .  S
C417        C421   1.550       .  S
C417        C419   1.547       .  S
C417        H423   1.111       .  S
C418        H424   1.085       .  S
C418        C419   1.362       .  D
C419       C1132   1.480       .  S
C420        H425   1.087       .  S
C420        C421   1.364       .  D
C421       C1112   1.491       .  S
C426        C427   1.541       .  S
C426        C432   1.531       .  S
C426        C430   1.533       .  S
C426       C1155   1.536       .  S
C427        H434   1.078       .  S
C427        C428   1.362       .  D
C428        C429   1.545       .  S
C428       C1102   1.477       .  S
C429        C433   1.550       .  S
C429        C431   1.551       .  S
C429        H435   1.110       .  S
C430        H436   1.087       .  S
C430        C431   1.367       .  D
C431       C1142   1.491       .  S
C432        H437   1.087       .  S
C432        C433   1.363       .  D
C433       C1485   1.491       .  S
C438        C439   1.534       .  S
C438        C444   1.531       .  S
C438        C442   1.541       .  S
C438       C1082   1.540       .  S
C439        H446   1.087       .  S
C439        C440   1.367       .  D
C440        C441   1.551       .  S
C440       C1092   1.484       .  S
C441        C445   1.547       .  S
C441        C443   1.545       .  S
C441        H447   1.109       .  S
C442        H448   1.080       .  S
C442        C443   1.365       .  D
C443       C1135   1.494       .  S
C444        H449   1.087       .  S
C444        C445   1.364       .  D
C445       C1525   1.487       .  S
C450        C451   1.539       .  S
C450        C456   1.526       .  S
C450        C454   1.535       .  S
C450       C1075   1.532       .  S
C451        H458   1.084       .  S
C451        C452   1.370       .  D
C452        C453   1.546       .  S
C452       C1105   1.491       .  S
C453        C457   1.548       .  S
C453        C455   1.550       .  S
C453        H459   1.109       .  S
C454        H460   1.086       .  S
C454        C455   1.364       .  D
C455       C1095   1.483       .  S
C456        H461   1.087       .  S
C456        C457   1.361       .  D
C457       C1062   1.485       .  S
In462       O464   2.258       .  S
In462       O465   2.223       .  S
In462       O473   2.238       .  S
In462       O467   2.263       .  S
In462       O469   2.233       .  S
In462       O470   2.231       .  S
In462       O471   2.268       .  S
In462       O474   2.264       .  S
C463        O469   1.257   1_554  A
C463        O471   1.260   1_554  A
C463        C563   1.464       .  S
O464        C472   1.264   1_545  A
O465        C472   1.260   1_545  A
C466        O473   1.258       .  A
C466        O467   1.259       .  A
C466       C1085   1.485       .  S
C468        O470   1.257       .  A
C468        O474   1.259       .  A
C472        C694   1.461       .  S
In475       O477   2.261       .  S
In475       O478   2.235       .  S
In475       O486   2.230       .  S
In475       O480   2.259       .  S
In475       O482   2.239       .  S
In475       O483   2.206       .  S
In475       O484   2.263       .  S
In475       O487   2.260       .  S
C476        O482   1.257   1_554  A
C476        O484   1.260   1_554  A
C476        C550   1.465       .  S
O477        C485   1.260       .  A
O478        C485   1.259       .  A
C479        O486   1.253       .  A
C479        O480   1.261       .  A
C479       C1072   1.481       .  S
C481        O483   1.260       .  A
C481        O487   1.264       .  A
C485        C668   1.461       .  S
In488       O490   2.273       .  S
In488       O491   2.212       .  S
In488       O499   2.246       .  S
In488       O493   2.257       .  S
In488       O495   2.243       .  S
In488       O496   2.241       .  S
In488       O497   2.267       .  S
In488       O500   2.259       .  S
C489        O495   1.258       .  A
C489        O497   1.261       .  A
C489        C589   1.469       .  S
O490        C498   1.263       .  A
O491        C498   1.257       .  A
C492        O499   1.258       .  A
C492        O493   1.259       .  A
C492       C1125   1.485       .  S
C494        O496   1.259       .  A
C494        O500   1.260       .  A
C494        C611   1.461   1_545  S
C501        C502   1.534       .  S
C501        C507   1.529       .  S
C501        C505   1.544       .  S
C501       C1035   1.538       .  S
C502        H509   1.084       .  S
C502        C503   1.365       .  D
C503        C504   1.551       .  S
C503       C1052   1.483       .  S
C504        C508   1.545       .  S
C504        C506   1.553       .  S
C504        H510   1.108       .  S
C505        H511   1.084       .  S
C505        C506   1.372       .  D
C506       C1042   1.508       .  S
C507        H512   1.087       .  S
C507        C508   1.362       .  D
C508       C1365   1.486       .  S
C513        C514   1.541       .  S
C513        C519   1.525       .  S
C513        C517   1.537       .  S
C513       C1012   1.535       .  S
C514        H521   1.085       .  S
C514        C515   1.370       .  D
C515        C516   1.554       .  S
C515       C1025   1.504       .  S
C516        C520   1.550       .  S
C516        C518   1.550       .  S
C516        H522   1.109       .  S
C517        H523   1.083       .  S
C517        C518   1.366       .  D
C518       C1055   1.483       .  S
C519        H524   1.087       .  S
C519        C520   1.359       .  D
C520       C1002   1.487       .  S
C525        C526   1.531       .  S
C525        C531   1.534       .  S
C525        C529   1.547       .  S
C525        C982   1.542       .  S
C526        H533   1.083       .  S
C526        C527   1.367       .  D
C527        C528   1.552       .  S
C527        C995   1.498       .  S
C528        C532   1.555       .  S
C528        C530   1.549       .  S
C528        H534   1.110       .  S
C529        H535   1.079       .  S
C529        C530   1.371       .  D
C530       C1045   1.491       .  S
C531        H536   1.088       .  S
C531        C532   1.361       .  D
C532        C972   1.495       .  S
C537        C538   1.545       .  S
C537        C543   1.531       .  S
C537        C541   1.534       .  S
C537        C962   1.540       .  S
C538        H545   1.076       .  S
C538        C539   1.364       .  D
C539        C540   1.548       .  S
C539       C1022   1.488       .  S
C540        C544   1.556       .  S
C540        C542   1.557       .  S
C540        H546   1.110       .  S
C541        H547   1.087       .  S
C541        C542   1.368       .  D
C542        C992   1.499       .  S
C543        H548   1.087       .  S
C543        C544   1.361       .  D
C544       C1415   1.495       .  S
In549       O551   2.264       .  S
In549       O552   2.232       .  S
In549       O560   2.263       .  S
In549       O554   2.253       .  S
In549       O556   2.240       .  S
In549       O557   2.244       .  S
In549       O558   2.261       .  S
In549       O561   2.254       .  S
C550        O556   1.258       .  A
C550        O558   1.261       .  A
O551        C559   1.261       .  A
O552        C559   1.258       .  A
C553        O560   1.258       .  A
C553        O554   1.258       .  A
C553        C985   1.485       .  S
C555        O557   1.259       .  A
C555        O561   1.261       .  A
C555        C759   1.461       .  S
In562       O564   2.241       .  S
In562       O565   2.238       .  S
In562       O573   2.241       .  S
In562       O567   2.245       .  S
In562       O569   2.234       .  S
In562       O570   2.217       .  S
In562       O571   2.269       .  S
In562       O574   2.264       .  S
C563        O569   1.256       .  A
C563        O571   1.261       .  A
O564        C572   1.260       .  A
O565        C572   1.260       .  A
C566        O573   1.257       .  A
C566        O567   1.257       .  A
C566        C965   1.480       .  S
C568        O570   1.257   1_565  A
C568        O574   1.264   1_565  A
C568        C785   1.458       .  S
In575       O577   2.255       .  S
In575       O578   2.220       .  S
In575       O586   2.233       .  S
In575       O580   2.261       .  S
In575       O582   2.242       .  S
In575       O583   2.260       .  S
In575       O584   2.254       .  S
In575       O587   2.228       .  S
C576        O582   1.259       .  A
C576        O584   1.260       .  A
O577        C585   1.263       .  A
O578        C585   1.259       .  A
C579        O586   1.256       .  A
C579        O580   1.261       .  A
C579       C1032   1.482       .  S
C581        O583   1.260       .  A
C581        O587   1.257       .  A
C585        C794   1.458       .  S
In588       O590   2.269       .  S
In588       O591   2.228       .  S
In588       O599   2.227       .  S
In588       O593   2.268       .  S
In588       O595   2.246       .  S
In588       O596   2.205       .  S
In588       O597   2.266       .  S
In588       O600   2.277       .  S
C589        O595   1.259       .  A
C589        O597   1.260       .  A
O590        C598   1.260   1_545  A
O591        C598   1.258   1_545  A
C592        O599   1.256       .  A
C592        O593   1.263       .  A
C592       C1015   1.484       .  S
C594        O596   1.256       .  A
C594        O600   1.265       .  A
C598        C768   1.459       .  S
In601       O603   2.260       .  S
In601       O604   2.241       .  S
In601       O612   2.255       .  S
In601       O606   2.259       .  S
In601       O608   2.251       .  S
In601       O609   2.243       .  S
In601       O610   2.260       .  S
In601       O613   2.249       .  S
C602        O608   1.260       .  A
C602        O610   1.259       .  A
C602        C763   1.468       .  S
O603        C611   1.260       .  A
O604        C611   1.258       .  A
C605        O612   1.258       .  A
C605        O606   1.259       .  A
C605        C952   1.486       .  S
C607        O609   1.259       .  A
C607        O613   1.261       .  A
C614        C615   1.541       .  S
C614        C620   1.527       .  S
C614        C618   1.536       .  S
C614        C922   1.536       .  S
C615        H622   1.084       .  S
C615        C616   1.372       .  D
C616        C617   1.554       .  S
C616        C932   1.504       .  S
C617        C621   1.553       .  S
C617        C619   1.553       .  S
C617        H623   1.108       .  S
C618        H624   1.084       .  S
C618        C619   1.365       .  D
C619        C942   1.488       .  S
C620        H625   1.087       .  S
C620        C621   1.359       .  D
C621       C1275   1.494       .  S
C626        C627   1.533       .  S
C626        C632   1.529       .  S
C626        C630   1.546       .  S
C626        C902   1.541       .  S
C627        H634   1.086       .  S
C627        C628   1.365       .  D
C628        C629   1.550       .  S
C628        C945   1.483       .  S
C629        C633   1.545       .  S
C629        C631   1.553       .  S
C629        H635   1.107       .  S
C630        H636   1.082       .  S
C630        C631   1.375       .  D
C631        C912   1.509       .  S
C632        H637   1.087       .  S
C632        C633   1.361       .  D
C633       C1065   1.486       .  S
C638        C639   1.541       .  S
C638        C644   1.531       .  S
C638        C642   1.540       .  S
C638        C885   1.542       .  S
C639        H646   1.079       .  S
C639        C640   1.374       .  D
C640        C641   1.549       .  S
C640        C895   1.494       .  S
C641        C645   1.544       .  S
C641        C643   1.547       .  S
C641        H647   1.110       .  S
C642        H648   1.087       .  S
C642        C643   1.364       .  D
C643        C915   1.489       .  S
C644        H649   1.087       .  S
C644        C645   1.361       .  D
C645       C1325   1.485       .  S
C650        C651   1.545       .  S
C650        C656   1.533       .  S
C650        C654   1.530       .  S
C650        C955   1.544       .  S
C651        H658   1.077       .  S
C651        C652   1.366       .  D
C652        C653   1.543       .  S
C652        C935   1.483       .  S
C653        C657   1.550       .  S
C653        C655   1.550       .  S
C653        H659   1.110       .  S
C654        H660   1.087       .  S
C654        C655   1.369       .  D
C655        C892   1.491       .  S
C656        H661   1.087       .  S
C656        C657   1.364       .  D
C657       C1115   1.490       .  S
In662       O664   2.262       .  S
In662       O665   2.218       .  S
In662       O673   2.238       .  S
In662       O667   2.279       .  S
In662       O669   2.241       .  S
In662       O670   2.236       .  S
In662       O671   2.262       .  S
In662       O674   2.266       .  S
C663        O669   1.258   1_554  A
C663        O671   1.260   1_554  A
C663        C750   1.466       .  S
O664        C672   1.265       .  A
O665        C672   1.260       .  A
C666        O673   1.255       .  A
C666        O667   1.261       .  A
C666        C905   1.489       .  S
C668        O670   1.257       .  A
C668        O674   1.261       .  A
In675       O677   2.265       .  S
In675       O678   2.230       .  S
In675       O686   2.229       .  S
In675       O680   2.277       .  S
In675       O682   2.267       .  S
In675       O683   2.232       .  S
In675       O684   2.237       .  S
In675       O687   2.262       .  S
C676        O682   1.261       .  A
C676        O684   1.258       .  A
C676        C789   1.467       .  S
O677        C685   1.265       .  A
O678        C685   1.259       .  A
C679        O686   1.256       .  A
C679        O680   1.261       .  A
C679        C882   1.486       .  S
C681        O683   1.257       .  A
C681        O687   1.259       .  A
In688       O690   2.250       .  S
In688       O691   2.255       .  S
In688       O699   2.237       .  S
In688       O693   2.267       .  S
In688       O695   2.250       .  S
In688       O696   2.223       .  S
In688       O697   2.265       .  S
In688       O700   2.261       .  S
C689        O695   1.257   1_554  A
C689        O697   1.260   1_554  A
C689        C776   1.467       .  S
O690        C698   1.259       .  A
O691        C698   1.260       .  A
C692        O699   1.254       .  A
C692        O693   1.260       .  A
C692        C925   1.481       .  S
C694        O696   1.260       .  A
C694        O700   1.264       .  A
C701        C702   1.534       .  S
C701        C707   1.527       .  S
C701        C705   1.544       .  S
C701        C852   1.538       .  S
C702        H709   1.086       .  S
C702        C703   1.366       .  D
C703        C704   1.551       .  S
C703        C872   1.484       .  S
C704        C708   1.546       .  S
C704        C706   1.549       .  S
C704        H710   1.108       .  S
C705        H711   1.083       .  S
C705        C706   1.372       .  D
C706        C862   1.502       .  S
C707        H712   1.087       .  S
C707        C708   1.361       .  D
C708       C1165   1.489       .  S
C713        C714   1.542       .  S
C713        C719   1.537       .  S
C713        C717   1.533       .  S
C713        C832   1.540       .  S
C714        H721   1.079       .  S
C714        C715   1.365       .  D
C715        C716   1.544       .  S
C715        C842   1.486       .  S
C716        C720   1.552       .  S
C716        C718   1.550       .  S
C716        H722   1.110       .  S
C717        H723   1.087       .  S
C717        C718   1.366       .  D
C718        C875   1.489       .  S
C719        H724   1.087       .  S
C719        C720   1.364       .  D
C720        C975   1.494       .  S
C725        C726   1.540       .  S
C725        C731   1.529       .  S
C725        C729   1.537       .  S
C725        C812   1.541       .  S
C726        H733   1.082       .  S
C726        C727   1.375       .  D
C727        C728   1.557       .  S
C727        C845   1.511       .  S
C728        C732   1.546       .  S
C728        C730   1.551       .  S
C728        H734   1.105       .  S
C729        H735   1.085       .  S
C729        C730   1.365       .  D
C730        C825   1.489       .  S
C731        H736   1.087       .  S
C731        C732   1.361       .  D
C732       C1225   1.493       .  S
C737        C738   1.537       .  S
C737        C743   1.531       .  S
C737        C741   1.543       .  S
C737        C802   1.539       .  S
C738        H745   1.084       .  S
C738        C739   1.368       .  D
C739        C740   1.552       .  S
C739        C822   1.490       .  S
C740        C744   1.547       .  S
C740        C742   1.545       .  S
C740        H746   1.111       .  S
C741        H747   1.085       .  S
C741        C742   1.364       .  D
C742        C865   1.486       .  S
C743        H748   1.087       .  S
C743        C744   1.362       .  D
C744       C1005   1.488       .  S
In749       O751   2.250       .  S
In749       O752   2.247       .  S
In749       O760   2.269       .  S
In749       O754   2.234       .  S
In749       O756   2.239       .  S
In749       O757   2.230       .  S
In749       O758   2.260       .  S
In749       O761   2.261       .  S
C750        O756   1.260       .  A
C750        O758   1.261       .  A
O751        C759   1.259       .  A
O752        C759   1.259       .  A
C753        O760   1.260       .  A
C753        O754   1.256       .  A
C753        C835   1.485       .  S
C755        O757   1.257       .  A
C755        O761   1.261       .  A
In762       O764   2.264       .  S
In762       O765   2.225       .  S
In762       O773   2.231       .  S
In762       O767   2.282       .  S
In762       O769   2.243       .  S
In762       O770   2.227       .  S
In762       O771   2.263       .  S
In762       O774   2.270       .  S
C763        O769   1.258       .  A
C763        O771   1.261       .  A
O764        C772   1.265       .  A
O765        C772   1.260       .  A
C766        O773   1.255       .  A
C766        O767   1.261       .  A
C766        C805   1.488       .  S
C768        O770   1.256       .  A
C768        O774   1.261       .  A
In775       O777   2.260       .  S
In775       O778   2.216       .  S
In775       O786   2.230       .  S
In775       O780   2.278       .  S
In775       O782   2.246       .  S
In775       O783   2.243       .  S
In775       O784   2.254       .  S
In775       O787   2.262       .  S
C776        O782   1.260       .  A
C776        O784   1.260       .  A
O777        C785   1.263       .  A
O778        C785   1.259       .  A
C779        O786   1.256       .  A
C779        O780   1.262       .  A
C779        C855   1.488       .  S
C781        O783   1.257       .  A
C781        O787   1.260       .  A
In788       O790   2.259       .  S
In788       O791   2.250       .  S
In788       O799   2.247       .  S
In788       O793   2.270       .  S
In788       O795   2.267       .  S
In788       O796   2.218       .  S
In788       O797   2.238       .  S
In788       O800   2.256       .  S
C789        O795   1.261       .  A
C789        O797   1.258       .  A
O790        C798   1.260       .  A
O791        C798   1.258       .  A
C792        O799   1.255       .  A
C792        O793   1.261       .  A
C792        C815   1.489       .  S
C794        O796   1.259       .  A
C794        O800   1.264       .  A
C801        C802   1.413       .  A
C801        C806   1.394       .  A
C801        F808   1.357       .  S
C802        C803   1.419       .  A
C803        C804   1.406       .  A
C803        F810   1.356       .  S
C804        C805   1.407       .  A
C804        F809   1.358       .  S
C805        C806   1.407       .  A
C806        F807   1.358       .  S
C811        C812   1.417       .  A
C811        C816   1.400       .  A
C811        F818   1.357       .  S
C812        C813   1.417       .  A
C813        C814   1.402       .  A
C813        F820   1.356       .  S
C814        C815   1.405       .  A
C814        F819   1.358       .  S
C815        C816   1.408       .  A
C816        F817   1.359       .  S
C821        C822   1.405       .  A
C821        C826   1.402       .  A
C821        F828   1.355       .  S
C822        C823   1.408       .  A
C823        C824   1.404       .  A
C823        F830   1.358       .  S
C824        C825   1.406       .  A
C824        F829   1.358       .  S
C825        C826   1.407       .  A
C826        F827   1.355       .  S
C831        C832   1.420       .  A
C831        C836   1.403       .  A
C831        F838   1.354       .  S
C832        C833   1.412       .  A
C833        C834   1.396       .  A
C833        F840   1.358       .  S
C834        C835   1.407       .  A
C834        F839   1.358       .  S
C835        C836   1.405       .  A
C836        F837   1.358       .  S
C841        C842   1.405       .  A
C841        C846   1.397       .  A
C841        F848   1.358       .  S
C842        C843   1.399       .  A
C843        C844   1.402       .  A
C843        F850   1.357       .  S
C844        C845   1.420       .  A
C844        F849   1.357       .  S
C845        C846   1.414       .  A
C846        F847   1.354       .  S
C851        C852   1.415       .  A
C851        C856   1.396       .  A
C851        F858   1.356       .  S
C852        C853   1.419       .  A
C853        C854   1.403       .  A
C853        F860   1.357       .  S
C854        C855   1.405       .  A
C854        F859   1.358       .  S
C855        C856   1.407       .  A
C856        F857   1.358       .  S
C861        C862   1.412       .  A
C861        C866   1.400       .  A
C861        F868   1.355       .  S
C862        C863   1.415       .  A
C863        C864   1.400       .  A
C863        F870   1.358       .  S
C864        C865   1.402       .  A
C864        F869   1.355       .  S
C865        C866   1.405       .  A
C866        F867   1.358       .  S
C871        C872   1.406       .  A
C871        C876   1.407       .  A
C871        F878   1.357       .  S
C872        C873   1.405       .  A
C873        C874   1.398       .  A
C873        F880   1.357       .  S
C874        C875   1.405       .  A
C874        F879   1.353       .  S
C875        C876   1.407       .  A
C876        F877   1.357       .  S
C881        C882   1.406       .  A
C881        C886   1.407       .  A
C881        F888   1.358       .  S
C882        C883   1.405       .  A
C883        C884   1.393       .  A
C883        F890   1.358       .  S
C884        C885   1.414       .  A
C884        F889   1.359       .  S
C885        C886   1.420       .  A
C886        F887   1.353       .  S
C891        C892   1.408       .  A
C891        C896   1.408       .  A
C891        F898   1.357       .  S
C892        C893   1.406       .  A
C893        C894   1.398       .  A
C893        F900   1.358       .  S
C894        C895   1.407       .  A
C894        F899   1.358       .  S
C895        C896   1.409       .  A
C896        F897   1.357       .  S
C901        C902   1.416       .  A
C901        C906   1.398       .  A
C901        F908   1.355       .  S
C902        C903   1.419       .  A
C903        C904   1.403       .  A
C903        F910   1.357       .  S
C904        C905   1.405       .  A
C904        F909   1.358       .  S
C905        C906   1.407       .  A
C906        F907   1.358       .  S
C911        C912   1.414       .  A
C911        C916   1.404       .  A
C911        F918   1.355       .  S
C912        C913   1.417       .  A
C913        C914   1.402       .  A
C913        F920   1.357       .  S
C914        C915   1.400       .  A
C914        F919   1.357       .  S
C915        C916   1.406       .  A
C916        F917   1.358       .  S
C921        C922   1.414       .  A
C921        C926   1.395       .  A
C921        F928   1.358       .  S
C922        C923   1.419       .  A
C923        C924   1.401       .  A
C923        F930   1.355       .  S
C924        C925   1.403       .  A
C924        F929   1.358       .  S
C925        C926   1.406       .  A
C926        F927   1.359       .  S
C931        C932   1.417       .  A
C931        C936   1.403       .  A
C931        F938   1.357       .  S
C932        C933   1.412       .  A
C933        C934   1.399       .  A
C933        F940   1.355       .  S
C934        C935   1.404       .  A
C934        F939   1.358       .  S
C935        C936   1.400       .  A
C936        F937   1.358       .  S
C941        C942   1.407       .  A
C941        C946   1.407       .  A
C941        F948   1.357       .  S
C942        C943   1.408       .  A
C943        C944   1.398       .  A
C943        F950   1.356       .  S
C944        C945   1.404       .  A
C944        F949   1.358       .  S
C945        C946   1.406       .  A
C946        F947   1.358       .  S
C951        C952   1.405       .  A
C951        C956   1.402       .  A
C951        F958   1.358       .  S
C952        C953   1.405       .  A
C953        C954   1.399       .  A
C953        F960   1.358       .  S
C954        C955   1.416       .  A
C954        F959   1.359       .  S
C955        C956   1.419       .  A
C956        F957   1.352       .  S
C961        C962   1.419       .  A
C961        C966   1.398       .  A
C961        F968   1.350       .  S
C962        C963   1.416       .  A
C963        C964   1.397       .  A
C963        F970   1.359       .  S
C964        C965   1.404       .  A
C964        F969   1.358       .  S
C965        C966   1.404       .  A
C966        F967   1.358       .  S
C971        C972   1.408       .  A
C971        C976   1.411       .  A
C971        F978   1.357       .  S
C972        C973   1.409       .  A
C973        C974   1.405       .  A
C973        F980   1.358       .  S
C974        C975   1.407       .  A
C974        F979   1.358       .  S
C975        C976   1.407       .  A
C976        F977   1.357       .  S
C981        C982   1.417       .  A
C981        C986   1.405       .  A
C981        F988   1.353       .  S
C982        C983   1.416       .  A
C983        C984   1.396       .  A
C983        F990   1.359       .  S
C984        C985   1.404       .  A
C984        F989   1.358       .  S
C985        C986   1.406       .  A
C986        F987   1.358       .  S
C991        C992   1.409       .  A
C991        C996   1.409       .  A
C991        F998   1.356       .  S
C992        C993   1.410       .  A
C993        C994   1.402       .  A
C993       F1000   1.358       .  S
C994        C995   1.408       .  A
C994        F999   1.358       .  S
C995        C996   1.409       .  A
C996        F997   1.357       .  S
C1001      C1002   1.406   1_565  A
C1001      C1006   1.403       .  A
C1001      F1008   1.358   1_565  S
C1002      C1003   1.407   1_545  A
C1003      C1004   1.407       .  A
C1003      F1010   1.357   1_565  S
C1004      C1005   1.406       .  A
C1004      F1009   1.358       .  S
C1005      C1006   1.407       .  A
C1006      F1007   1.357       .  S
C1011      C1012   1.413       .  A
C1011      C1016   1.395       .  A
C1011      F1018   1.359       .  S
C1012      C1013   1.418       .  A
C1013      C1014   1.402       .  A
C1013      F1020   1.355       .  S
C1014      C1015   1.405       .  A
C1014      F1019   1.358       .  S
C1015      C1016   1.407       .  A
C1016      F1017   1.358       .  S
C1021      C1022   1.406       .  A
C1021      C1026   1.403       .  A
C1021      F1028   1.358       .  S
C1022      C1023   1.401       .  A
C1023      C1024   1.403       .  A
C1023      F1030   1.357       .  S
C1024      C1025   1.416       .  A
C1024      F1029   1.358       .  S
C1025      C1026   1.411       .  A
C1026      F1027   1.356       .  S
C1031      C1032   1.406       .  A
C1031      C1036   1.395       .  A
C1031      F1038   1.358       .  S
C1032      C1033   1.403       .  A
C1033      C1034   1.402       .  A
C1033      F1040   1.358       .  S
C1034      C1035   1.420       .  A
C1034      F1039   1.355       .  S
C1035      C1036   1.413       .  A
C1036      F1037   1.358       .  S
C1041      C1042   1.418       .  A
C1041      C1046   1.404       .  A
C1041      F1048   1.357       .  S
C1042      C1043   1.412       .  A
C1043      C1044   1.403       .  A
C1043      F1050   1.356       .  S
C1044      C1045   1.406       .  A
C1044      F1049   1.358       .  S
C1045      C1046   1.401       .  A
C1046      F1047   1.357       .  S
C1051      C1052   1.407       .  A
C1051      C1056   1.407       .  A
C1051      F1058   1.358       .  S
C1052      C1053   1.405       .  A
C1053      C1054   1.395       .  A
C1053      F1060   1.357       .  S
C1054      C1055   1.404       .  A
C1054      F1059   1.357       .  S
C1055      C1056   1.407       .  A
C1056      F1057   1.358       .  S
C1061      C1062   1.407       .  A
C1061      C1066   1.405       .  A
C1061      F1068   1.358       .  S
C1062      C1063   1.404       .  A
C1063      C1064   1.404       .  A
C1063      F1070   1.357       .  S
C1064      C1065   1.405       .  A
C1064      F1069   1.357       .  S
C1065      C1066   1.406       .  A
C1066      F1067   1.358       .  S
C1071      C1072   1.403       .  A
C1071      C1076   1.396       .  A
C1071      F1078   1.357       .  S
C1072      C1073   1.409       .  A
C1073      C1074   1.397       .  A
C1073      F1080   1.359       .  S
C1074      C1075   1.415       .  A
C1074      F1079   1.357       .  S
C1075      C1076   1.416       .  A
C1076      F1077   1.356       .  S
C1081      C1082   1.414       .  A
C1081      C1086   1.402       .  A
C1081      F1088   1.358       .  S
C1082      C1083   1.419       .  A
C1083      C1084   1.396       .  A
C1083      F1090   1.354       .  S
C1084      C1085   1.404       .  A
C1084      F1089   1.358       .  S
C1085      C1086   1.407       .  A
C1086      F1087   1.358       .  S
C1091      C1092   1.405       .  A
C1091      C1096   1.396       .  A
C1091      F1098   1.358       .  S
C1092      C1093   1.406       .  A
C1093      C1094   1.408       .  A
C1093      F1100   1.357       .  S
C1094      C1095   1.406       .  A
C1094      F1099   1.357       .  S
C1095      C1096   1.405       .  A
C1096      F1097   1.358       .  S
C1101      C1102   1.399       .  A
C1101      C1106   1.398       .  A
C1101      F1108   1.358       .  S
C1102      C1103   1.406       .  A
C1103      C1104   1.400       .  A
C1103      F1110   1.358       .  S
C1104      C1105   1.409       .  A
C1104      F1109   1.356       .  S
C1105      C1106   1.412       .  A
C1106      F1107   1.358       .  S
C1111      C1112   1.408       .  A
C1111      C1116   1.411   1_545  A
C1111      F1118   1.357       .  S
C1112      C1113   1.406   1_545  A
C1113      C1114   1.400       .  A
C1113      F1120   1.358   1_565  S
C1114      C1115   1.406       .  A
C1114      F1119   1.358       .  S
C1115      C1116   1.408       .  A
C1116      F1117   1.357       .  S
C1121      C1122   1.416       .  A
C1121      C1126   1.400       .  A
C1121      F1128   1.357       .  S
C1122      C1123   1.416       .  A
C1123      C1124   1.398       .  A
C1123      F1130   1.357       .  S
C1124      C1125   1.407       .  A
C1124      F1129   1.359       .  S
C1125      C1126   1.405       .  A
C1126      F1127   1.358       .  S
C1131      C1132   1.399       .  A
C1131      C1136   1.398       .  A
C1131      F1138   1.358       .  S
C1132      C1133   1.407       .  A
C1133      C1134   1.402       .  A
C1133      F1140   1.358       .  S
C1134      C1135   1.408       .  A
C1134      F1139   1.356       .  S
C1135      C1136   1.413       .  A
C1136      F1137   1.358       .  S
C1141      C1142   1.407       .  A
C1141      C1146   1.401       .  A
C1141      F1148   1.358       .  S
C1142      C1143   1.407       .  A
C1143      C1144   1.406       .  A
C1143      F1150   1.356       .  S
C1144      C1145   1.408       .  A
C1144      F1149   1.356       .  S
C1145      C1146   1.407       .  A
C1146      F1147   1.358       .  S
C1151      C1152   1.403       .  A
C1151      C1156   1.395       .  A
C1151      F1158   1.358       .  S
C1152      C1153   1.404       .  A
C1153      C1154   1.396       .  A
C1153      F1160   1.358       .  S
C1154      C1155   1.419       .  A
C1154      F1159   1.352       .  S
C1155      C1156   1.416       .  A
C1156      F1157   1.359       .  S
C1161      C1162   1.409       .  A
C1161      C1166   1.411       .  A
C1161      F1168   1.357       .  S
C1162      C1163   1.407       .  A
C1163      C1164   1.400       .  A
C1163      F1170   1.358       .  S
C1164      C1165   1.404       .  A
C1164      F1169   1.358       .  S
C1165      C1166   1.408       .  A
C1166      F1167   1.358       .  S
C1171      C1172   1.406       .  A
C1171      C1176   1.403       .  A
C1171      F1178   1.358       .  S
C1172      C1173   1.404       .  A
C1173      C1174   1.396       .  A
C1173      F1180   1.358       .  S
C1174      C1175   1.416       .  A
C1174      F1179   1.359       .  S
C1175      C1176   1.416       .  A
C1176      F1177   1.353       .  S
C1181      C1182   1.415       .  A
C1181      C1186   1.396       .  A
C1181      F1188   1.358       .  S
C1182      C1183   1.418       .  A
C1183      C1184   1.400       .  A
C1183      F1190   1.354       .  S
C1184      C1185   1.403       .  A
C1184      F1189   1.358       .  S
C1185      C1186   1.403       .  A
C1186      F1187   1.358       .  S
C1191      C1192   1.408       .  A
C1191      C1196   1.407       .  A
C1191      F1198   1.357       .  S
C1192      C1193   1.407       .  A
C1193      C1194   1.400       .  A
C1193      F1200   1.358       .  S
C1194      C1195   1.406       .  A
C1194      F1199   1.358       .  S
C1195      C1196   1.407       .  A
C1196      F1197   1.358       .  S
C1201      C1202   1.416       .  A
C1201      C1206   1.398       .  A
C1201      F1208   1.354       .  S
C1202      C1203   1.414       .  A
C1203      C1204   1.396       .  A
C1203      F1210   1.358       .  S
C1204      C1205   1.404       .  A
C1204      F1209   1.358       .  S
C1205      C1206   1.403       .  A
C1206      F1207   1.358       .  S
C1211      C1212   1.410       .  A
C1211      C1216   1.403       .  A
C1211      F1218   1.355       .  S
C1212      C1213   1.418       .  A
C1213      C1214   1.403       .  A
C1213      F1220   1.356       .  S
C1214      C1215   1.409       .  A
C1214      F1219   1.354       .  S
C1215      C1216   1.419       .  A
C1216      F1217   1.357       .  S
C1221      C1222   1.407       .  A
C1221      C1226   1.402   1_655  A
C1221      F1228   1.358       .  S
C1222      C1223   1.409       .  A
C1223      C1224   1.411   1_655  A
C1223      F1230   1.358       .  S
C1224      C1225   1.408       .  A
C1224      F1229   1.358       .  S
C1225      C1226   1.405       .  A
C1226      F1227   1.358       .  S
C1231      C1232   1.416       .  A
C1231      C1236   1.396       .  A
C1231      F1238   1.359       .  S
C1232      C1233   1.419       .  A
C1233      C1234   1.400       .  A
C1233      F1240   1.352       .  S
C1234      C1235   1.405       .  A
C1234      F1239   1.358       .  S
C1235      C1236   1.403       .  A
C1236      F1237   1.358       .  S
C1241      C1242   1.410       .  A
C1241      C1246   1.403       .  A
C1241      F1248   1.355       .  S
C1242      C1243   1.420       .  A
C1243      C1244   1.401       .  A
C1243      F1250   1.356       .  S
C1244      C1245   1.408       .  A
C1244      F1249   1.355       .  S
C1245      C1246   1.418       .  A
C1246      F1247   1.357       .  S
C1251      C1252   1.405       .  A
C1251      C1256   1.404       .  A
C1251      F1258   1.357       .  S
C1252      C1253   1.406       .  A
C1253      C1254   1.399       .  A
C1253      F1260   1.358       .  S
C1254      C1255   1.406       .  A
C1254      F1259   1.358       .  S
C1255      C1256   1.406       .  A
C1256      F1257   1.357       .  S
C1261      C1262   1.418       .  A
C1261      C1266   1.401       .  A
C1261      F1268   1.356       .  S
C1262      C1263   1.413       .  A
C1263      C1264   1.394       .  A
C1263      F1270   1.358       .  S
C1264      C1265   1.406       .  A
C1264      F1269   1.359       .  S
C1265      C1266   1.404       .  A
C1266      F1267   1.358       .  S
C1271      C1272   1.406       .  A
C1271      C1276   1.407       .  A
C1271      F1278   1.357       .  S
C1272      C1273   1.408       .  A
C1273      C1274   1.408       .  A
C1273      F1280   1.358       .  S
C1274      C1275   1.409       .  A
C1274      F1279   1.358       .  S
C1275      C1276   1.406       .  A
C1276      F1277   1.357       .  S
C1281      C1282   1.416       .  A
C1281      C1286   1.398       .  A
C1281      F1288   1.357       .  S
C1282      C1283   1.418       .  A
C1283      C1284   1.401       .  A
C1283      F1290   1.357       .  S
C1284      C1285   1.405       .  A
C1284      F1289   1.358       .  S
C1285      C1286   1.406       .  A
C1286      F1287   1.358       .  S
C1291      C1292   1.407       .  A
C1291      C1296   1.397       .  A
C1291      F1298   1.358       .  S
C1292      C1293   1.407       .  A
C1293      C1294   1.408       .  A
C1293      F1300   1.357       .  S
C1294      C1295   1.405       .  A
C1294      F1299   1.357       .  S
C1295      C1296   1.406       .  A
C1296      F1297   1.358       .  S
C1301      C1302   1.414       .  A
C1301      C1306   1.394       .  A
C1301      F1308   1.357       .  S
C1302      C1303   1.419       .  A
C1303      C1304   1.401       .  A
C1303      F1310   1.356       .  S
C1304      C1305   1.404       .  A
C1304      F1309   1.358       .  S
C1305      C1306   1.405       .  A
C1306      F1307   1.358       .  S
C1311      C1312   1.400       .  A
C1311      C1316   1.400       .  A
C1311      F1318   1.357       .  S
C1312      C1313   1.408       .  A
C1313      C1314   1.404       .  A
C1313      F1320   1.358       .  S
C1314      C1315   1.412       .  A
C1314      F1319   1.357       .  S
C1315      C1316   1.415       .  A
C1316      F1317   1.357       .  S
C1321      C1322   1.407       .  A
C1321      C1326   1.409   1_655  A
C1321      F1328   1.358       .  S
C1322      C1323   1.405       .  A
C1323      C1324   1.398   1_655  A
C1323      F1330   1.357       .  S
C1324      C1325   1.405       .  A
C1324      F1329   1.358       .  S
C1325      C1326   1.407       .  A
C1326      F1327   1.358       .  S
C1331      C1332   1.417       .  A
C1331      C1336   1.402       .  A
C1331      F1338   1.357       .  S
C1332      C1333   1.417       .  A
C1333      C1334   1.397       .  A
C1333      F1340   1.356       .  S
C1334      C1335   1.405       .  A
C1334      F1339   1.358       .  S
C1335      C1336   1.407       .  A
C1336      F1337   1.358       .  S
C1341      C1342   1.403       .  A
C1341      C1346   1.399       .  A
C1341      F1348   1.358       .  S
C1342      C1343   1.400       .  A
C1343      C1344   1.399       .  A
C1343      F1350   1.357       .  S
C1344      C1345   1.412       .  A
C1344      F1349   1.358       .  S
C1345      C1346   1.411       .  A
C1346      F1347   1.356       .  S
C1351      C1352   1.405       .  A
C1351      C1356   1.399       .  A
C1351      F1358   1.358       .  S
C1352      C1353   1.406       .  A
C1353      C1354   1.403       .  A
C1353      F1360   1.356       .  S
C1354      C1355   1.407       .  A
C1354      F1359   1.356       .  S
C1355      C1356   1.407       .  A
C1356      F1357   1.358       .  S
C1361      C1362   1.408       .  A
C1361      C1366   1.404   1_655  A
C1361      F1368   1.357       .  S
C1362      C1363   1.407       .  A
C1363      C1364   1.405   1_655  A
C1363      F1370   1.358       .  S
C1364      C1365   1.405       .  A
C1364      F1369   1.358       .  S
C1365      C1366   1.405       .  A
C1366      F1367   1.358       .  S
C1371      C1372   1.418       .  A
C1371      C1376   1.398       .  A
C1371      F1378   1.359       .  S
C1372      C1373   1.416       .  A
C1373      C1374   1.400       .  A
C1373      F1380   1.352       .  S
C1374      C1375   1.403       .  A
C1374      F1379   1.358       .  S
C1375      C1376   1.404       .  A
C1376      F1377   1.358       .  S
C1381      C1382   1.409   1_565  A
C1381      C1386   1.405       .  A
C1381      F1388   1.358   1_565  S
C1382      C1383   1.407   1_545  A
C1383      C1384   1.408       .  A
C1383      F1390   1.355   1_565  S
C1384      C1385   1.407       .  A
C1384      F1389   1.357       .  S
C1385      C1386   1.407       .  A
C1386      F1387   1.358       .  S
C1391      C1392   1.421       .  A
C1391      C1396   1.404       .  A
C1391      F1398   1.354       .  S
C1392      C1393   1.415       .  A
C1393      C1394   1.398       .  A
C1393      F1400   1.358       .  S
C1394      C1395   1.407       .  A
C1394      F1399   1.358       .  S
C1395      C1396   1.404       .  A
C1396      F1397   1.358       .  S
C1401      C1402   1.407       .  A
C1401      C1406   1.400       .  A
C1401      F1408   1.358       .  S
C1402      C1403   1.407       .  A
C1403      C1404   1.407       .  A
C1403      F1410   1.356       .  S
C1404      C1405   1.408       .  A
C1404      F1409   1.357       .  S
C1405      C1406   1.409       .  A
C1406      F1407   1.358       .  S
C1411      C1412   1.407       .  A
C1411      C1416   1.410       .  A
C1411      F1418   1.357       .  S
C1412      C1413   1.408       .  A
C1413      C1414   1.406       .  A
C1413      F1420   1.358       .  S
C1414      C1415   1.409       .  A
C1414      F1419   1.358       .  S
C1415      C1416   1.407       .  A
C1416      F1417   1.357       .  S
C1421      C1422   1.420       .  A
C1421      C1426   1.399       .  A
C1421      F1428   1.350       .  S
C1422      C1423   1.417       .  A
C1423      C1424   1.401       .  A
C1423      F1430   1.359       .  S
C1424      C1425   1.405       .  A
C1424      F1429   1.358       .  S
C1425      C1426   1.403       .  A
C1426      F1427   1.358       .  S
C1431      C1432   1.418       .  A
C1431      C1436   1.404       .  A
C1431      F1438   1.357       .  S
C1432      C1433   1.411       .  A
C1433      C1434   1.405       .  A
C1433      F1440   1.356       .  S
C1434      C1435   1.409       .  A
C1434      F1439   1.358       .  S
C1435      C1436   1.400       .  A
C1436      F1437   1.355       .  S
C1441      C1442   1.407       .  A
C1441      C1446   1.407       .  A
C1441      F1448   1.358       .  S
C1442      C1443   1.407       .  A
C1443      C1444   1.408       .  A
C1443      F1450   1.358       .  S
C1444      C1445   1.408       .  A
C1444      F1449   1.358       .  S
C1445      C1446   1.407       .  A
C1446      F1447   1.357       .  S
C1451      C1452   1.405       .  A
C1451      C1456   1.404       .  A
C1451      F1458   1.358       .  S
C1452      C1453   1.406       .  A
C1453      C1454   1.398       .  A
C1453      F1460   1.358       .  S
C1454      C1455   1.416       .  A
C1454      F1459   1.356       .  S
C1455      C1456   1.419       .  A
C1456      F1457   1.357       .  S
C1461      C1462   1.407       .  A
C1461      C1466   1.405       .  A
C1461      F1468   1.358       .  S
C1462      C1463   1.400       .  A
C1463      C1464   1.403       .  A
C1463      F1470   1.355       .  S
C1464      C1465   1.417       .  A
C1464      F1469   1.357       .  S
C1465      C1466   1.414       .  A
C1466      F1467   1.356       .  S
C1471      C1472   1.406       .  A
C1471      C1476   1.398       .  A
C1471      F1478   1.358       .  S
C1472      C1473   1.407       .  A
C1473      C1474   1.411       .  A
C1473      F1480   1.357       .  S
C1474      C1475   1.409       .  A
C1474      F1479   1.357       .  S
C1475      C1476   1.406       .  A
C1476      F1477   1.358       .  S
C1481      C1482   1.407       .  A
C1481      C1486   1.410   1_655  A
C1481      F1488   1.357       .  S
C1482      C1483   1.407       .  A
C1483      C1484   1.400   1_655  A
C1483      F1490   1.359       .  S
C1484      C1485   1.408       .  A
C1484      F1489   1.359       .  S
C1485      C1486   1.407       .  A
C1486      F1487   1.357       .  S
C1491      C1492   1.406   1_565  A
C1491      C1496   1.402       .  A
C1491      F1498   1.358   1_565  S
C1492      C1493   1.406   1_545  A
C1493      C1494   1.407       .  A
C1493      F1500   1.357   1_565  S
C1494      C1495   1.406       .  A
C1494      F1499   1.357       .  S
C1495      C1496   1.407       .  A
C1496      F1497   1.358       .  S
C1501      C1502   1.421       .  A
C1501      C1506   1.405       .  A
C1501      F1508   1.352       .  S
C1502      C1503   1.414       .  A
C1503      C1504   1.392       .  A
C1503      F1510   1.359       .  S
C1504      C1505   1.405       .  A
C1504      F1509   1.358       .  S
C1505      C1506   1.403       .  A
C1506      F1507   1.358       .  S
C1511      C1512   1.408       .  A
C1511      C1516   1.406       .  A
C1511      F1518   1.356       .  S
C1512      C1513   1.406       .  A
C1513      C1514   1.400       .  A
C1513      F1520   1.358       .  S
C1514      C1515   1.408       .  A
C1514      F1519   1.358       .  S
C1515      C1516   1.407       .  A
C1516      F1517   1.357       .  S
C1521      C1522   1.406       .  A
C1521      C1526   1.405       .  A
C1521      F1528   1.358       .  S
C1522      C1523   1.406       .  A
C1523      C1524   1.405       .  A
C1523      F1530   1.358       .  S
C1524      C1525   1.406       .  A
C1524      F1529   1.358       .  S
C1525      C1526   1.406       .  A
C1526      F1527   1.357       .  S
C1531      C1532   1.405       .  A
C1531      C1536   1.404       .  A
C1531      F1538   1.358       .  S
C1532      C1533   1.408       .  A
C1533      C1534   1.398       .  A
C1533      F1540   1.358       .  S
C1534      C1535   1.415       .  A
C1534      F1539   1.357       .  S
C1535      C1536   1.420       .  A
C1536      F1537   1.356       .  S
C1541      C1542   1.412       .  A
C1541      C1546   1.400       .  A
C1541      F1548   1.355       .  S
C1542      C1543   1.416       .  A
C1543      C1544   1.401       .  A
C1543      F1550   1.357       .  S
C1544      C1545   1.400       .  A
C1544      F1549   1.357       .  S
C1545      C1546   1.404       .  A
C1546      F1547   1.358       .  S
C1551      C1552   1.405       .  A
C1551      C1556   1.401       .  A
C1551      F1558   1.358       .  S
C1552      C1553   1.407       .  A
C1553      C1554   1.408       .  A
C1553      F1560   1.358       .  S
C1554      C1555   1.408       .  A
C1554      F1559   1.358       .  S
C1555      C1556   1.404       .  A
C1556      F1557   1.358       .  S
C1561      C1562   1.406       .  A
C1561      C1566   1.395       .  A
C1561      F1568   1.358       .  S
C1562      C1563   1.405       .  A
C1563      C1564   1.402       .  A
C1563      F1570   1.358       .  S
C1564      C1565   1.418       .  A
C1564      F1569   1.356       .  S
C1565      C1566   1.415       .  A
C1566      F1567   1.357       .  S
C1571      C1572   1.418       .  A
C1571      C1576   1.404       .  A
C1571      F1578   1.358       .  S
C1572      C1573   1.410       .  A
C1573      C1574   1.398       .  A
C1573      F1580   1.355       .  S
C1574      C1575   1.404       .  A
C1574      F1579   1.358       .  S
C1575      C1576   1.402       .  A
C1576      F1577   1.358       .  S
C1581      C1582   1.406       .  A
C1581      C1586   1.408       .  A
C1581      F1588   1.357       .  S
C1582      C1583   1.405       .  A
C1583      C1584   1.397       .  A
C1583      F1590   1.358       .  S
C1584      C1585   1.405       .  A
C1584      F1589   1.357       .  S
C1585      C1586   1.407       .  A
C1586      F1587   1.357       .  S
C1591      C1592   1.404       .  A
C1591      C1596   1.396       .  A
C1591      F1598   1.358       .  S
C1592      C1593   1.404       .  A
C1593      C1594   1.401       .  A
C1593      F1600   1.358       .  S
C1594      C1595   1.418       .  A
C1594      F1599   1.353       .  S
C1595      C1596   1.414       .  A
C1596      F1597   1.359       .  S
