geometry optimzed in LAMMPS
_audit_creation_date              2020-11-30 
_audit_creation_method            'lammps2cif' 
_symmetry_space_group_name_H-M    'P1' 
_symmetry_Int_Tables_number       1 
_symmetry_cell_setting            triclinic 
loop_ 
_symmetry_equiv_pos_as_xyz 
  x,y,z 
_cell_length_a                    25.67164738 
_cell_length_b                    25.579838208102863 
_cell_length_c                    25.995566287461536 
_cell_angle_alpha                 89.48104635817528 
_cell_angle_beta                  90.05945941355309 
_cell_angle_gamma                 89.99251797052041 
loop_ 
_atom_site_label 
_atom_site_type_symbol 
_atom_site_fract_x 
_atom_site_fract_y 
_atom_site_fract_z 
_atom_site_charge 
C1          C  0.32510898  0.32897263  0.17133086    -0.02400
C2          C  0.29254609  0.07695385  0.44358426    -0.02400
C3          C  0.03699775  0.09020752  0.14679697    -0.02400
C4          C  0.03430333  0.34642671  0.40007959    -0.02400
C5          C  0.29634085  0.05121576  0.67292312    -0.02400
C6          C  0.05220130  0.06374590  0.91978988    -0.02400
C7          C  0.06921001  0.36795277  0.67065698    -0.02400
C8          C  0.31469019  0.35032793  0.92597284    -0.02400
O9          O  0.37411183  0.34763439  0.08989741    -0.80000
O10         O  0.38378501  0.53977730  0.99444460    -0.80100
O11         O  0.37362785  0.49874209  0.13003745    -0.80100
O12         O  0.35536856  0.42613636  0.97502910    -0.80000
O13         O  0.41290533  0.56593047  0.09588785    -0.80100
O14         O  0.39157864  0.35091450  0.98383260    -0.80100
O15         O  0.39685701  0.50466002  0.91891074    -0.80000
O16         O  0.38956156  0.39675942  0.15678834    -0.80100
C17         C  0.36371744  0.36073653  0.13601345     1.09600
C18         C  0.37194423  0.53813013  0.94537282     1.09500
C19         C  0.37992091  0.54745640  0.12887028     1.09700
C20         C  0.35519769  0.37722559  0.96458044     1.09500
O21         O  0.49966185  0.36600647  0.99766922    -0.80000
O22         O  0.52003842  0.52886386  0.08243539    -0.80100
O23         O  0.50243147  0.41383402  0.15131001    -0.80100
O24         O  0.49611457  0.50745821  0.96712432    -0.80000
O25         O  0.48393076  0.58368273  0.00318016    -0.80100
O26         O  0.48723609  0.34630097  0.10197494    -0.80100
O27         O  0.46256403  0.41307860  0.93674033    -0.80000
O28         O  0.48041640  0.52006629  0.15453851    -0.80100
Co29       Co  0.43813149  0.36255455  0.04492053     1.51500
Co30       Co  0.45259143  0.52474492  0.03885890     1.51700
Co31       Co  0.43693276  0.45575601  0.13735044     1.51600
Co32       Co  0.42434911  0.46743838  0.97936166     1.51500
O33         O  0.43835136  0.44548620  0.05602638    -1.42000
C34         C  0.49670839  0.37924615  0.95045816     1.09600
C35         C  0.51737662  0.54105329  0.13015596     1.09700
C36         C  0.51310843  0.36756314  0.13746043     1.09600
C37         C  0.50930831  0.55639628  0.97052212     1.09600
C38         C  0.34862555  0.58246079  0.16721713    -0.02400
C39         C  0.04495637  0.82489449  0.15749378    -0.02400
C40         C  0.08483927  0.56118222  0.41189377    -0.02400
C41         C  0.32528692  0.87496363  0.38079448    -0.02400
O42         O  0.38371676  0.03072280  0.46069505    -0.80000
O43         O  0.46273366  0.03892800  0.62787683    -0.80100
O44         O  0.33570649  0.01086368  0.59430075    -0.80100
O45         O  0.53824528  0.02158114  0.50637053    -0.80000
O46         O  0.37458056  0.99327737  0.66986806    -0.80100
O47         O  0.49067389  0.00319246  0.43742686    -0.80100
O48         O  0.53840478  0.00564957  0.61093287    -0.80000
O49         O  0.31505576  0.00427251  0.50022269    -0.80100
C50         C  0.33376929  0.03644941  0.46921552     1.09600
C51         C  0.51280261  0.04229483  0.63042434     1.09500
C52         C  0.33920850  0.01805925  0.64424666     1.09700
C53         C  0.52666364  0.03055997  0.45956071     1.09500
O54         O  0.47273546  0.88875088  0.45836754    -0.80000
O55         O  0.38487712  0.89361631  0.62519937    -0.80100
O56         O  0.34618568  0.90953811  0.47057505    -0.80100
O57         O  0.52815908  0.89425797  0.59999020    -0.80000
O58         O  0.47941944  0.92880110  0.66143113    -0.80100
O59         O  0.39443020  0.93888235  0.40503503    -0.80100
O60         O  0.54604351  0.91128084  0.49406794    -0.80000
O61         O  0.32026403  0.90686210  0.57420554    -0.80100
Co62       Co  0.42979007  0.95925081  0.46752468     1.51500
Co63       Co  0.42311948  0.96744961  0.61862116     1.51700
Co64       Co  0.36295287  0.95735866  0.53723778     1.51600
Co65       Co  0.52838083  0.95801364  0.55175151     1.51500
O66         O  0.44639863  0.96135959  0.54432542    -1.42000
C67         C  0.52186128  0.88017878  0.46565204     1.09600
C68         C  0.33857790  0.88068593  0.61049344     1.09700
C69         C  0.35808887  0.90833880  0.42115984     1.09600
C70         C  0.51503869  0.89591425  0.64742063     1.09600
C71         C  0.52882534  0.34970098  0.90871475    -0.02400
C72         C  0.81078454  0.35786907  0.65526437    -0.02400
C73         C  0.54777395  0.08669228  0.65677199    -0.02400
C74         C  0.83194965  0.11072393  0.92664411    -0.02400
C75         C  0.32828073  0.57639617  0.92221588    -0.02400
C76         C  0.30241832  0.83466429  0.63166084    -0.02400
C77         C  0.05831476  0.59256536  0.63756233    -0.02400
C78         C  0.07611838  0.82234226  0.94408540    -0.02400
C79         C  0.55823613  0.83421872  0.44310031    -0.02400
C80         C  0.80708721  0.58983499  0.44887803    -0.02400
C81         C  0.55502292  0.58303039  0.15762554    -0.02400
C82         C  0.81320649  0.84780485  0.15682660    -0.02400
C83         C  0.55533056  0.58003690  0.93690604    -0.02400
C84         C  0.82939280  0.57766609  0.67975110    -0.02400
C85         C  0.54603081  0.86431504  0.69041050    -0.02400
C86         C  0.81658108  0.85819582  0.92050661    -0.02400
O87         O  0.96765584  0.03318181  0.96269055    -0.80000
O88         O  0.89722355  0.86922306  0.96945356    -0.80100
O89         O  0.04408493  0.90818964  0.98099292    -0.80100
O90         O  0.85800958  0.02033594  0.97181894    -0.80000
O91         O  0.99819443  0.83833143  0.99973119    -0.80100
O92         O  0.88998730  0.09167932  0.00322600    -0.80100
O93         O  0.83008685  0.91597484  0.99601834    -0.80000
O94         O  0.04120297  0.01773941  0.00062112    -0.80100
C95         C  0.01701114  0.03852831  0.96347344     1.09600
C96         C  0.85040459  0.88406550  0.96346103     1.09500
C97         C  0.03614810  0.85880317  0.97549794     1.09700
C98         C  0.86159657  0.07171101  0.96800134     1.09500
O99         O  0.87654465  0.03571333  0.09714278    -0.80000
O100        O  0.96751274  0.85148778  0.10622499    -0.80100
O101        O  0.02315817  0.00100289  0.10816223    -0.80100
O102        O  0.85516081  0.92655981  0.10979682    -0.80000
O103        O  0.86467182  0.85108669  0.07540952    -0.80100
O104        O  0.97722759  0.06591017  0.07440025    -0.80100
O105        O  0.80382593  0.00488172  0.06595388    -0.80000
O106        O  0.04049960  0.89195811  0.09022421    -0.80100
Co107      Co  0.92355455  0.02695640  0.02924833     1.51500
Co108      Co  0.93302145  0.86399099  0.03736519     1.51700
Co109      Co  0.02755511  0.95429654  0.04443823     1.51600
Co110      Co  0.86612086  0.97055897  0.04181960     1.51500
O111        O  0.94472945  0.94731319  0.03780237    -1.42000
C112        C  0.82593428  0.03326041  0.10008706     1.09600
C113        C  0.01543790  0.85829825  0.11593912     1.09700
C114        C  0.00974093  0.04934423  0.10877916     1.09600
C115        C  0.84559135  0.87738103  0.11168243     1.09600
C116        C  0.55586600  0.07668997  0.43011745    -0.02400
C117        C  0.79047902  0.06637094  0.13792347    -0.02400
C118        C  0.55316474  0.33242036  0.16670728    -0.02400
C119        C  0.82230545  0.36016362  0.40997908    -0.02400
O120        O  0.06297471  0.49595812  0.47998167    -0.80000
O121        O  0.85811117  0.52551973  0.59804474    -0.80100
O122        O  0.89332424  0.54761264  0.46280685    -0.80100
O123        O  0.97752888  0.54207861  0.61384445    -0.80000
O124        O  0.82782268  0.50596906  0.49755488    -0.80100
O125        O  0.05157815  0.50674664  0.58941022    -0.80100
O126        O  0.89541576  0.50330860  0.67046375    -0.80000
O127        O  0.99822976  0.54232079  0.45177187    -0.80100
C128        C  0.04644852  0.53216160  0.45053662     1.09600
C129        C  0.86098857  0.53207688  0.64817021     1.09500
C130        C  0.84502576  0.54570858  0.47167395     1.09700
C131        C  0.02728054  0.54362973  0.61323126     1.09500
O132        O  0.02385939  0.39198156  0.58852577    -0.80000
O133        O  0.85985201  0.39308025  0.49860578    -0.80100
O134        O  0.99052417  0.43207974  0.41847516    -0.80100
O135        O  0.88794023  0.40706708  0.61883385    -0.80000
O136        O  0.81168390  0.42971024  0.58727911    -0.80100
O137        O  0.02556127  0.39046621  0.48422357    -0.80100
O138        O  0.99374859  0.43483893  0.65296855    -0.80000
O139        O  0.88431971  0.43463357  0.42943928    -0.80100
Co140      Co  0.03203211  0.44862398  0.53584374     1.51500
Co141      Co  0.86970477  0.45808983  0.54798869     1.51700
Co142      Co  0.94199316  0.48747221  0.44959822     1.51600
Co143      Co  0.93427874  0.47544673  0.61010135     1.51500
O144        O  0.95039407  0.46740189  0.52987901    -1.42000
C145        C  0.02537886  0.39903092  0.63626750     1.09600
C146        C  0.85933191  0.39580092  0.44891758     1.09700
C147        C  0.01584812  0.39289216  0.43606047     1.09600
C148        C  0.83727987  0.40056845  0.61849507     1.09600
C149        C  0.75458568  0.42392975  0.29702454    -0.27500
C150        C  0.70343071  0.41880733  0.31452985     0.02100
C151        C  0.69489334  0.42013867  0.36834113     0.30200
C152        C  0.73752861  0.41546108  0.40233345    -0.19300
C153        C  0.78773138  0.40396385  0.38265111    -0.28700
C154        C  0.79603204  0.42325953  0.33196526     0.44200
C155        C  0.66139327  0.40300427  0.27832637     0.05400
O156        O  0.64514948  0.42114224  0.38765944    -0.57200
H157        H  0.72956553  0.41024604  0.44297643     0.18300
O158        O  0.84097328  0.44825867  0.31675216    -0.63900
H159        H  0.76282516  0.42948432  0.25657509     0.16800
C160        C  0.65245228  0.42607531  0.22945367     0.29000
C161        C  0.61051842  0.40874783  0.19856482    -0.24800
C162        C  0.58530719  0.36087875  0.20959462    -0.24100
C163        C  0.60329193  0.33326708  0.25469216     0.40500
C164        C  0.63485859  0.35728906  0.29050035    -0.26600
O165        O  0.68406608  0.46534783  0.21138183    -0.58500
H166        H  0.60349755  0.42826244  0.16206837     0.16100
O167        O  0.59604412  0.28063247  0.26194662    -0.59900
H168        H  0.64431827  0.33563794  0.32523050     0.14600
H169        H  0.86750738  0.44371086  0.34388948     0.46400
H170        H  0.70419866  0.44984228  0.18278800     0.41800
H171        H  0.62674720  0.26358177  0.24614833     0.45200
H172        H  0.63961503  0.38649168  0.40422455     0.36700
C173        C  0.67303607  0.25624999  0.13176406    -0.27500
C174        C  0.65622161  0.22271476  0.09369980     0.02100
C175        C  0.60713615  0.23170227  0.07093352     0.30200
C176        C  0.57620052  0.27383064  0.08804664    -0.19300
C177        C  0.59315239  0.30612094  0.12914364    -0.28700
C178        C  0.64675933  0.30107108  0.14248893     0.44200
C179        C  0.69316670  0.18103509  0.07948795     0.05400
O180        O  0.58920304  0.20037781  0.03220663    -0.57200
H181        H  0.53696339  0.27596496  0.07339894     0.18300
O182        O  0.67577446  0.33888323  0.16559289    -0.63900
H183        H  0.70927793  0.24991665  0.15198528     0.16800
C184        C  0.74747495  0.19120281  0.08170229     0.29000
C185        C  0.78190380  0.14982360  0.08690404    -0.24800
C186        C  0.76182000  0.10008743  0.09728839    -0.24100
C187        C  0.71333590  0.08857914  0.07472871     0.40500
C188        C  0.67664327  0.12935463  0.07152020    -0.26600
O189        O  0.76679978  0.24147416  0.08100515    -0.58500
H190        H  0.82278250  0.15821628  0.09339167     0.16100
O191        O  0.69999975  0.03772360  0.06329607    -0.59900
H192        H  0.63601614  0.12014284  0.06548004     0.14600
H193        H  0.69057447  0.35994489  0.13688892     0.46400
H194        H  0.78973198  0.24485012  0.11158246     0.41800
H195        H  0.67315410  0.03901667  0.03585279     0.45200
H196        H  0.56060598  0.17948865  0.04769958     0.36700
C197        C  0.84002698  0.27645513  0.28271769    -0.27500
C198        C  0.83866568  0.22567979  0.30231077     0.02100
C199        C  0.84810027  0.22043868  0.35556464     0.30200
C200        C  0.85684440  0.26533642  0.38708563    -0.19300
C201        C  0.84959093  0.31848164  0.36956778    -0.28700
C202        C  0.84761921  0.32124841  0.31379146     0.44200
C203        C  0.82740565  0.18067320  0.26527313     0.05400
O204        O  0.84870145  0.17166839  0.37780768    -0.57200
H205        H  0.86414103  0.25807294  0.42745808     0.18300
O206        O  0.86684641  0.36348504  0.28759096    -0.63900
H207        H  0.83780043  0.28159284  0.24135028     0.16800
C208        C  0.77906591  0.17827588  0.24016314     0.29000
C209        C  0.77006017  0.14202296  0.20074501    -0.24800
C210        C  0.80928266  0.10812025  0.18045893    -0.24100
C211        C  0.85745661  0.10932975  0.20687398     0.40500
C212        C  0.86536891  0.14389653  0.24958774    -0.26600
O213        O  0.73891996  0.20993206  0.25543520    -0.58500
H214        H  0.73093631  0.14070167  0.18522498     0.16100
O215        O  0.89639424  0.07620511  0.19199335    -0.59900
H216        H  0.90164347  0.14245449  0.27021412     0.14600
H217        H  0.84473003  0.36912025  0.25662827     0.46400
H218        H  0.74349995  0.24304160  0.23587719     0.41800
H219        H  0.90702472  0.05648816  0.22321342     0.45200
H220        H  0.81159324  0.16292968  0.38403225     0.36700
C221        C  0.48214439  0.26993474  0.27852347    -0.27500
C222        C  0.49521368  0.21685308  0.27377946     0.02100
C223        C  0.51446071  0.19968304  0.22626994     0.30200
C224        C  0.52525590  0.23582525  0.18732444    -0.19300
C225        C  0.51931147  0.29044464  0.19488375    -0.28700
C226        C  0.49118556  0.30596115  0.23905081     0.44200
C227        C  0.49316430  0.18118970  0.31939591     0.05400
O228        O  0.52879819  0.14858405  0.21902286    -0.57200
H229        H  0.54382145  0.21925407  0.15459372     0.18300
O230        O  0.48351855  0.35785551  0.24964627    -0.63900
H231        H  0.46647281  0.28470691  0.31397255     0.16800
C232        C  0.50738022  0.19891086  0.36849071     0.29000
C233        C  0.50727915  0.16413564  0.40972274    -0.24800
C234        C  0.51266584  0.11022135  0.40173173    -0.24100
C235        C  0.49047744  0.09232049  0.35462228     0.40500
C236        C  0.47955277  0.12810022  0.31467243    -0.36600
O237        O  0.52045250  0.24996715  0.37774698    -0.58500
H238        H  0.50276996  0.18114306  0.44664048     0.16100
O239        O  0.48745827  0.04004687  0.34386161    -0.59900
H240        H  0.46468216  0.11321380  0.27873518     0.14600
H241        H  0.45582718  0.36961117  0.22583022     0.46400
H242        H  0.55770851  0.25295717  0.36810930     0.41800
H243        H  0.44973793  0.03165889  0.34452158     0.45200
H244        H  0.56545679  0.14628208  0.23095728     0.36700
C245        C  0.70467454  0.26249327  0.41748166    -0.27500
C246        C  0.71189053  0.23489568  0.46301239     0.02100
C247        C  0.75572968  0.24806236  0.49358114     0.30200
C248        C  0.78733824  0.29244820  0.48106321    -0.19300
C249        C  0.78017275  0.32088637  0.43451074    -0.28700
C250        C  0.74011059  0.30057131  0.40120530     0.44200
C251        C  0.67470913  0.19038842  0.47351928     0.05400
O252        O  0.76805008  0.21811132  0.53581765    -0.57200
H253        H  0.82015200  0.30136269  0.50556767     0.18300
O254        O  0.73739562  0.31540480  0.35043093    -0.63900
H255        H  0.67378851  0.25091056  0.39143750     0.16800
C256        C  0.62153928  0.19948582  0.48357641     0.29000
C257        C  0.58596731  0.15738999  0.48624313    -0.24800
C258        C  0.59745227  0.10842264  0.46499040    -0.24100
C259        C  0.65287369  0.09766852  0.46420509     0.40500
C260        C  0.69009040  0.13834627  0.46722666    -0.26600
O261        O  0.60408182  0.24916120  0.49271701    -0.58500
H262        H  0.54918647  0.16311224  0.50504252     0.16100
O263        O  0.67197434  0.04785871  0.45947224    -0.59900
H264        H  0.73095071  0.12933332  0.46190703     0.14600
H265        H  0.74218722  0.28320387  0.33005373     0.46400
H266        H  0.59346428  0.26317750  0.45863010     0.41800
H267        H  0.65334530  0.02585752  0.48503523     0.45200
H268        H  0.79610901  0.19437701  0.52417418     0.36700
C269        C  0.64987513  0.08411982  0.31507698    -0.27500
C270        C  0.66984870  0.03386226  0.31379315     0.02100
C271        C  0.65639457  0.99875468  0.35313944     0.30200
C272        C  0.61278832  0.00854539  0.38411827    -0.19300
C273        C  0.59121551  0.05903318  0.38529870    -0.28700
C274        C  0.61380922  0.09798673  0.35208067     0.44200
C275        C  0.69804889  0.01907076  0.26682581     0.05400
O276        O  0.68958766  0.95941370  0.36662440    -0.57200
H277        H  0.60223497  0.97997246  0.41320884     0.18300
O278        O  0.60581993  0.15039791  0.35989875    -0.63900
H279        H  0.66361611  0.11335678  0.28779044     0.16800
C280        C  0.67198175  0.02545517  0.22010121     0.29000
C281        C  0.70023762  0.03373025  0.17534722    -0.24800
C282        C  0.75559873  0.03086791  0.17386234    -0.24100
C283        C  0.77921100  0.01035148  0.21956797     0.40500
C284        C  0.75159533  0.01002393  0.26632461    -0.26600
O285        O  0.61893716  0.03294690  0.21917035    -0.58500
H286        H  0.67566809  0.04805991  0.14581841     0.16100
O287        O  0.83151236  0.00015827  0.22165833    -0.59900
H288        H  0.77239819  0.00436539  0.30219770     0.14600
H289        H  0.59997253  0.16674023  0.32560343     0.46400
H290        H  0.60451743  0.00179525  0.20176482     0.41800
H291        H  0.83945079  0.97755075  0.19202182     0.45200
H292        H  0.71515406  0.97541847  0.39037461     0.36700
C293        C  0.60918358  0.94021027  0.79875616    -0.27500
C294        C  0.66111803  0.93468660  0.78236323     0.02100
C295        C  0.66976751  0.93079567  0.72847594     0.30200
C296        C  0.62861303  0.91761161  0.69607037    -0.19300
C297        C  0.57891097  0.90814943  0.71620733    -0.28700
C298        C  0.56825104  0.93270417  0.76351749     0.44200
C299        C  0.70536293  0.92578311  0.81921820     0.05400
O300        O  0.71852346  0.93784930  0.70751652    -0.57200
H301        H  0.63748228  0.90660722  0.65688910     0.18300
O302        O  0.52088295  0.95565500  0.77273069    -0.63900
H303        H  0.60001166  0.95044550  0.83793667     0.16800
C304        C  0.71218636  0.95017836  0.86779659     0.29000
C305        C  0.75622160  0.93714382  0.89893027    -0.24800
C306        C  0.79322951  0.89966695  0.88192469    -0.24100
C307        C  0.79099741  0.88811174  0.82877021     0.40500
C308        C  0.74464565  0.89219108  0.80267889    -0.26600
O309        O  0.67641779  0.98536626  0.88563939    -0.58500
H310        H  0.75695781  0.95047860  0.93828068     0.16100
O311        O  0.83320385  0.87260313  0.80087295    -0.59900
H312        H  0.74171902  0.87109872  0.76699607     0.14600
H313        H  0.51212008  0.97666110  0.74170835     0.46400
H314        H  0.65800775  0.96710759  0.91410172     0.41800
H315        H  0.84940465  0.90545854  0.78817202     0.45200
H316        H  0.72599709  0.90655691  0.68644612     0.36700
C317        C  0.69051790  0.63407148  0.65511163    -0.27500
C318        C  0.70060037  0.68807716  0.65193758     0.02100
C319        C  0.75201651  0.70215668  0.63828431     0.30200
C320        C  0.79173301  0.66385950  0.63227558    -0.19300
C321        C  0.78540346  0.61044918  0.64680047    -0.28700
C322        C  0.73098604  0.59594376  0.64977729     0.44200
C323        C  0.65887746  0.72976944  0.66226604     0.05400
O324        O  0.76375878  0.75358474  0.62857138    -0.57200
H325        H  0.82694384  0.67712519  0.61459856     0.18300
O326        O  0.71767932  0.54438568  0.65573021    -0.63900
H327        H  0.65125916  0.62095278  0.66323966     0.16800
C328        C  0.61117212  0.73414128  0.63517677     0.29000
C329        C  0.58017980  0.78073332  0.63766118    -0.24800
C330        C  0.58781143  0.81844893  0.67675903    -0.24100
C331        C  0.62816002  0.80398087  0.71304683     0.40500
C332        C  0.66601947  0.76555380  0.70191852    -0.26600
O333        O  0.59336792  0.69232052  0.60790261    -0.58500
H334        H  0.54724171  0.78461746  0.61196720     0.16100
O335        O  0.63039065  0.82598631  0.76088278    -0.59900
H336        H  0.69880278  0.76059760  0.72780311     0.14600
H337        H  0.69121117  0.53727146  0.62887062     0.46400
H338        H  0.56460395  0.67730239  0.62865266     0.41800
H339        H  0.62077705  0.79779488  0.78547371     0.45200
H340        H  0.77923656  0.76663165  0.66096316     0.36700
C341        C  0.89346191  0.64463528  0.79318470    -0.27500
C342        C  0.89352002  0.69655736  0.77533897     0.02100
C343        C  0.89683502  0.70470314  0.72180374     0.30200
C344        C  0.88982884  0.66196475  0.68816702    -0.19300
C345        C  0.87234815  0.61296540  0.70710299    -0.28700
C346        C  0.88657171  0.60298422  0.75942030     0.44200
C347        C  0.87898257  0.73870729  0.81246470     0.05400
O348        O  0.90488708  0.75387358  0.70200882    -0.57200
H349        H  0.89763106  0.66744311  0.64780099     0.18300
O350        O  0.88707326  0.55327621  0.77968469    -0.63900
H351        H  0.89540906  0.63632891  0.83407919     0.16800
C352        C  0.83292212  0.73180934  0.83989249     0.29000
C353        C  0.81538632  0.76973851  0.87259834    -0.24800
C354        C  0.84519894  0.81385215  0.88793995    -0.24100
C355        C  0.89432292  0.81938956  0.86254175     0.40500
C356        C  0.90908709  0.78371109  0.82297878    -0.26600
O357        O  0.80185944  0.68894325  0.83263749    -0.58500
H358        H  0.77587323  0.76315574  0.88388783     0.16100
O359        O  0.92560880  0.86170591  0.87234541    -0.59900
H360        H  0.94486133  0.79038856  0.80187684     0.14600
H361        H  0.91910906  0.53668451  0.76636708     0.46400
H362        H  0.80717276  0.66648117  0.86350258     0.41800
H363        H  0.92815491  0.88179144  0.83965704     0.45200
H364        H  0.86975669  0.76976666  0.69937536     0.36700
C365        C  0.48057045  0.68505325  0.85453199    -0.27500
C366        C  0.51793544  0.69712145  0.81750131     0.02100
C367        C  0.56678337  0.67366032  0.82018803     0.30200
C368        C  0.57716397  0.63815819  0.85957494    -0.19300
C369        C  0.53765874  0.61953453  0.89365795    -0.28700
C370        C  0.48893427  0.64576726  0.89110499     0.44200
C371        C  0.51037116  0.74330293  0.78510502     0.05400
O372        O  0.60608954  0.68886213  0.78761789    -0.57200
H373        H  0.61700268  0.62484774  0.86368188     0.18300
O374        O  0.45221912  0.64084717  0.92860432    -0.63900
H375        H  0.44512240  0.70795211  0.85642391     0.16800
C376        C  0.49351544  0.74052967  0.73381171     0.29000
C377        C  0.48770410  0.78695039  0.70521481    -0.24800
C378        C  0.50627065  0.83460575  0.72539158    -0.24100
C379        C  0.50711098  0.83737766  0.77986633     0.40500
C380        C  0.51486749  0.79174025  0.80841932    -0.26600
O381        O  0.48233368  0.69344522  0.71156003    -0.58500
H382        H  0.47755340  0.78433262  0.66493467     0.16100
O383        O  0.47982880  0.87611082  0.80406037    -0.59900
H384        H  0.51870940  0.79388621  0.84990703     0.14600
H385        H  0.43715663  0.60611892  0.92336712     0.46400
H386        H  0.51638584  0.67579881  0.70718762     0.41800
H387        H  0.49870151  0.88380797  0.83651762     0.45200
H388        H  0.60488478  0.66378209  0.75877299     0.36700
C389        C  0.72852631  0.58493820  0.79234429    -0.27500
C390        C  0.72279235  0.53361034  0.80917319     0.02100
C391        C  0.76006034  0.49700479  0.79178511     0.30200
C392        C  0.79224945  0.50847650  0.74846932    -0.19300
C393        C  0.79483026  0.55958419  0.72785617    -0.28700
C394        C  0.76602806  0.59873873  0.75539588     0.44200
C395        C  0.67620850  0.52130759  0.84268686     0.05400
O396        O  0.76748962  0.45138745  0.81838854    -0.57200
H397        H  0.81766780  0.47851835  0.73366729     0.18300
O398        O  0.77386249  0.65095435  0.74450440    -0.63900
H399        H  0.70382973  0.61499034  0.80851408     0.16800
C400        C  0.67946207  0.51298440  0.89631223     0.29000
C401        C  0.63346007  0.51336294  0.92660330    -0.24800
C402        C  0.58686048  0.53499577  0.90706809    -0.24100
C403        C  0.58108910  0.52749355  0.85292515     0.40500
C404        C  0.62578096  0.52403001  0.82124538    -0.26600
O405        O  0.72662338  0.50354274  0.91939570    -0.58500
H406        H  0.63523209  0.50145501  0.96660225     0.16100
O407        O  0.53327123  0.53264443  0.82986030    -0.59900
H408        H  0.62119583  0.52664796  0.77987221     0.14600
H409        H  0.73996545  0.66925009  0.74755827     0.46400
H410        H  0.74402794  0.53804206  0.92124404     0.41800
H411        H  0.51349573  0.50107372  0.84047207     0.45200
H412        H  0.80122736  0.45553562  0.83651177     0.36700
C413        C  0.61112108  0.71016476  0.97599994    -0.27500
C414        C  0.66403184  0.70003561  0.96759934     0.02100
C415        C  0.68097862  0.64819760  0.96869033     0.30200
C416        C  0.64500011  0.60847708  0.97632733    -0.19300
C417        C  0.59087981  0.61682906  0.97064772    -0.28700
C418        C  0.57482860  0.66943543  0.97903754     0.44200
C419        C  0.70086900  0.74391974  0.96166865     0.05400
O420        O  0.73263428  0.63548490  0.96409156    -0.57200
H421        H  0.66110841  0.57271903  0.99058782     0.18300
O422        O  0.52360688  0.68128317  0.98868223    -0.63900
H423        H  0.59757363  0.74984829  0.98121238     0.16800
C424        C  0.68629153  0.78795827  0.93290429     0.29000
C425        C  0.71974364  0.83006304  0.92885507    -0.24800
C426        C  0.77137050  0.82879946  0.94887386    -0.24100
C427        C  0.78421243  0.78567137  0.98149051     0.40500
C428        C  0.74931164  0.74376164  0.98690570    -0.26600
O429        O  0.64063054  0.78916008  0.90524524    -0.58500
H430        H  0.70598988  0.85836637  0.90205785     0.16100
O431        O  0.83406498  0.77958257  0.99989586    -0.59900
H432        H  0.76041399  0.71130466  0.01150926     0.14600
H433        H  0.51485957  0.71331814  0.96862304     0.46400
H434        H  0.64749675  0.76810713  0.87412190     0.41800
H435        H  0.83084414  0.76751097  0.03610932     0.45200
H436        H  0.73946315  0.63564264  0.92655622     0.36700
C437        C  0.59560089  0.70828187  0.08934999    -0.27500
C438        C  0.64952857  0.69948553  0.09075624     0.02100
C439        C  0.66693758  0.64709736  0.08833291     0.30200
C440        C  0.63127254  0.60547166  0.09509345    -0.19300
C441        C  0.58056056  0.61652552  0.11275645    -0.28700
C442        C  0.56077178  0.66627852  0.09768742     0.44200
C443        C  0.68639722  0.74180442  0.10658953     0.05400
O444        O  0.71916910  0.63632312  0.08458219    -0.57200
H445        H  0.64652026  0.56611064  0.09861653     0.18300
O446        O  0.50893443  0.67717176  0.10138057    -0.63900
H447        H  0.58059798  0.74783445  0.08793038     0.16800
C448        C  0.69719180  0.78767923  0.07804613     0.29000
C449        C  0.74236398  0.81747023  0.08939790    -0.24800
C450        C  0.76821135  0.81086249  0.13698551    -0.24100
C451        C  0.74286737  0.77613433  0.17256380     0.40500
C452        C  0.70909903  0.73757403  0.15504046    -0.26600
O453        O  0.66331687  0.80492267  0.04100690    -0.58500
H454        H  0.75335975  0.84927571  0.06392687     0.16100
O455        O  0.75268057  0.77836583  0.22437365    -0.59900
H456        H  0.69798729  0.70631581  0.18101303     0.14600
H457        H  0.49186698  0.65376273  0.07635221     0.46400
H458        H  0.63933949  0.82904967  0.05894566     0.41800
H459        H  0.71860717  0.78529081  0.24089695     0.45200
H460        H  0.73088979  0.62835709  0.12016058     0.36700
C461        C  0.61371745  0.51961497  0.28119515    -0.27500
C462        C  0.66012624  0.54799663  0.28664717     0.02100
C463        C  0.67437492  0.58245541  0.24750080     0.30200
C464        C  0.64357513  0.58794071  0.20420907    -0.19300
C465        C  0.59748617  0.55860401  0.19491922    -0.28700
C466        C  0.58396738  0.52245731  0.23508076     0.44200
C467        C  0.69458050  0.54301661  0.33237871     0.05400
O468        O  0.71642549  0.61507050  0.25306348    -0.57200
H469        H  0.65479475  0.62078689  0.18157686     0.18300
O470        O  0.54229715  0.48923566  0.22925520    -0.63900
H471        H  0.60216383  0.49251673  0.31131168     0.16800
C472        C  0.67582492  0.55129448  0.38194835     0.29000
C473        C  0.71081741  0.56097456  0.42205335    -0.24800
C474        C  0.76598777  0.55974817  0.41497916    -0.24100
C475        C  0.78351111  0.54238772  0.36632179     0.40500
C476        C  0.74836189  0.53706670  0.32543321    -0.26600
O477        O  0.62338056  0.55681833  0.39048248    -0.58500
H478        H  0.69180779  0.57396772  0.45587070     0.16100
O479        O  0.83606204  0.53973101  0.35639324    -0.59900
H480        H  0.76364413  0.53023199  0.28723870     0.14600
H481        H  0.52530249  0.48494405  0.26331162     0.46400
H482        H  0.61215823  0.52325599  0.40629187     0.41800
H483        H  0.84311478  0.56489871  0.32796779     0.45200
H484        H  0.70191098  0.64734864  0.26823070     0.36700
C485        C  0.85289780  0.72076824  0.22938180    -0.27500
C486        C  0.86258372  0.74149046  0.27844560     0.02100
C487        C  0.87850479  0.79434866  0.27989990     0.30200
C488        C  0.87827475  0.82555118  0.23422133    -0.19300
C489        C  0.85155330  0.80926284  0.18955510    -0.28700
C490        C  0.85042068  0.75336059  0.18478480     0.44200
C491        C  0.85157035  0.70861816  0.32644582     0.05400
O492        O  0.89499175  0.81603295  0.32516649    -0.57200
H493        H  0.89552693  0.86404935  0.23503054     0.18300
O494        O  0.83891099  0.73096757  0.13818496    -0.63900
H495        H  0.84436059  0.67948339  0.22583641     0.16800
C496        C  0.80016460  0.69484752  0.33815294     0.29000
C497        C  0.78890049  0.66048110  0.37894358    -0.24800
C498        C  0.82790371  0.63329963  0.40800507    -0.24100
C499        C  0.87959122  0.65237874  0.40014406     0.40500
C500        C  0.89039548  0.69026526  0.36073128    -0.26600
O501        O  0.75988111  0.71517922  0.30982576    -0.58500
H502        H  0.74805947  0.65365974  0.38669838     0.16100
O503        O  0.91958819  0.63732141  0.43173352    -0.59900
H504        H  0.92976398  0.70411364  0.35626583     0.14600
H505        H  0.86317056  0.70112748  0.13407040     0.46400
H506        H  0.74259529  0.74069425  0.33262406     0.41800
H507        H  0.91906824  0.66225045  0.46069835     0.45200
H508        H  0.86427020  0.81579296  0.34821448     0.36700
C509        C  0.47456373  0.72836087  0.37011239    -0.27500
C510        C  0.51445738  0.70110972  0.34436738     0.02100
C511        C  0.56568940  0.71123470  0.35817516     0.30200
C512        C  0.57677776  0.75365464  0.38849036    -0.19300
C513        C  0.53801476  0.78851717  0.40783099    -0.28700
C514        C  0.48637120  0.77121806  0.40237206     0.44200
C515        C  0.50740234  0.67470907  0.29424625     0.05400
O516        O  0.60603067  0.68310723  0.33742735    -0.57200
H517        H  0.61698819  0.75675803  0.39901307     0.18300
O518        O  0.44770477  0.79359733  0.43018834    -0.63900
H519        H  0.43437500  0.71852159  0.36384914     0.16800
C520        C  0.49476757  0.62185303  0.28896822     0.29000
C521        C  0.49834147  0.59804120  0.23997835    -0.24800
C522        C  0.52820234  0.62039420  0.19908778    -0.24100
C523        C  0.54804246  0.67166988  0.21100932     0.40500
C524        C  0.52883819  0.70035302  0.25206210    -0.26600
O525        O  0.47882817  0.59330148  0.33094547    -0.58500
H526        H  0.48258350  0.55946917  0.23672207     0.16100
O527        O  0.59313391  0.69098651  0.19056620    -0.59900
H528        H  0.54278595  0.74011454  0.25659267     0.14600
H529        H  0.45261143  0.78009994  0.46575982     0.46400
H530        H  0.51094980  0.57666126  0.34458741     0.41800
H531        H  0.61837349  0.69364610  0.21941066     0.45200
H532        H  0.61556796  0.65694935  0.36413138     0.36700
C533        C  0.67905732  0.84648744  0.35345748    -0.27500
C534        C  0.66096267  0.87504634  0.31130425     0.02100
C535        C  0.60935673  0.89447011  0.31454437     0.30200
C536        C  0.57946198  0.88635450  0.36013561    -0.19300
C537        C  0.59940705  0.86005536  0.40449221    -0.28700
C538        C  0.65274049  0.84394381  0.40009960     0.44200
C539        C  0.70049909  0.88779669  0.26956101     0.05400
O540        O  0.58744102  0.92094911  0.27385564    -0.57200
H541        H  0.53950112  0.89935953  0.36016619     0.18300
O542        O  0.67884190  0.81759424  0.43768272    -0.63900
H543        H  0.71620661  0.82673548  0.35146188     0.16800
C544        C  0.75399830  0.89289230  0.28235556     0.29000
C545        C  0.79200569  0.89371603  0.24403981    -0.24800
C546        C  0.78012335  0.88654630  0.19187550    -0.24100
C547        C  0.72704941  0.89955828  0.17949586     0.40500
C548        C  0.68759145  0.89534179  0.21736394    -0.26600
O549        O  0.76964311  0.90177241  0.33209352    -0.58500
H550        H  0.83030616  0.90440230  0.25620954     0.16100
O551        O  0.71226317  0.91091174  0.12992741    -0.59900
H552        H  0.64738364  0.89672236  0.20516045     0.14600
H553        H  0.70594000  0.84229756  0.44982391     0.46400
H554        H  0.79368079  0.87284891  0.34128641     0.41800
H555        H  0.73615071  0.93876959  0.11768149     0.45200
H556        H  0.57938852  0.95643720  0.28662098     0.36700
C557        C  0.66373879  0.78562936  0.53818454    -0.27500
C558        C  0.65990835  0.73200879  0.52492706     0.02100
C559        C  0.61083739  0.71472366  0.50749595     0.30200
C560        C  0.57069938  0.75069174  0.49978529    -0.19300
C561        C  0.58312745  0.80407106  0.49110135    -0.28700
C562        C  0.62557621  0.82221423  0.52110187     0.44200
C563        C  0.70640928  0.69567161  0.52519897     0.05400
O564        O  0.60135041  0.66321445  0.49669401    -0.57200
H565        H  0.53336458  0.73498991  0.48849528     0.18300
O566        O  0.63678427  0.87447497  0.52384494    -0.63900
H567        H  0.69835445  0.80026723  0.55688797     0.16800
C568        C  0.75599763  0.71319301  0.50941816     0.29000
C569        C  0.79485554  0.67688284  0.49769473    -0.24800
C570        C  0.78305486  0.62294449  0.49366919    -0.24100
C571        C  0.74146248  0.60579180  0.52467344     0.40500
C572        C  0.70152207  0.64162242  0.53680431    -0.26600
O573        O  0.76606503  0.76521006  0.50101390    -0.58500
H574        H  0.83148544  0.69235701  0.48396479     0.16100
O575        O  0.73396652  0.55351504  0.53444814    -0.59900
H576        H  0.66614529  0.62651493  0.55383107     0.14600
H577        H  0.63132239  0.88373428  0.56039164     0.46400
H578        H  0.76890886  0.76937532  0.46313592     0.41800
H579        H  0.76092988  0.54375967  0.56002473     0.45200
H580        H  0.61334186  0.65848377  0.46079522     0.36700
C581        C  0.03011095  0.70793332  0.72822250    -0.27500
C582        C  0.02215242  0.67904349  0.77316547     0.02100
C583        C  0.00679838  0.62663407  0.76771857     0.30200
C584        C  0.00133043  0.60470547  0.71785752    -0.19300
C585        C  0.02241438  0.62942934  0.67311496    -0.28700
C586        C  0.02901347  0.68500996  0.67943063     0.44200
C587        C  0.03427329  0.70501901  0.82356719     0.05400
O588        O  0.99744538  0.59602130  0.81036500    -0.57200
H589        H  0.98917773  0.56440768  0.71554499     0.18300
O590        O  0.02644937  0.72002625  0.63973428    -0.63900
H591        H  0.03749585  0.74957325  0.73088413     0.16800
C592        C  0.08463548  0.72357976  0.83112468     0.29000
C593        C  0.09514781  0.75736821  0.87130516    -0.24800
C594        C  0.05568348  0.78057392  0.90271965    -0.24100
C595        C  0.00624383  0.75599735  0.89954743     0.40500
C596        C  0.99679483  0.71714688  0.86144086    -0.26600
O597        O  0.12430125  0.70938111  0.79871889    -0.58500
H598        H  0.13571515  0.76606164  0.87737965     0.16100
O599        O  0.96820196  0.76646567  0.93479070    -0.59900
H600        H  0.95960426  0.69784329  0.86082751     0.14600
H601        H  0.98872043  0.72552701  0.63337225     0.46400
H602        H  0.14212014  0.67983008  0.81632610     0.41800
H603        H  0.96948258  0.73706066  0.95988838     0.45200
H604        H  0.03043539  0.59540800  0.83020286     0.36700
C605        C  0.20233409  0.78251960  0.53591578    -0.27500
C606        C  0.21058901  0.72885582  0.54870227     0.02100
C607        C  0.26349475  0.71576078  0.56007512     0.30200
C608        C  0.29963857  0.75535646  0.57056215    -0.19300
C609        C  0.28115041  0.80551195  0.58256691    -0.28700
C610        C  0.23759410  0.82140561  0.55305253     0.44200
C611        C  0.16549069  0.68945656  0.55421609     0.05400
O612        O  0.28089271  0.66540426  0.56466724    -0.57200
H613        H  0.33872373  0.74382404  0.58160798     0.18300
O614        O  0.22308195  0.87294541  0.55043000    -0.63900
H615        H  0.16737550  0.79564155  0.51686334     0.16800
C616        C  0.11187541  0.70428302  0.55785647     0.29000
C617        C  0.07346552  0.66647835  0.56981551    -0.24800
C618        C  0.08753386  0.61836131  0.59081559    -0.24100
C619        C  0.13665128  0.59953641  0.57459700     0.40500
C620        C  0.17473184  0.63477959  0.55689984    -0.26600
O621        O  0.09598148  0.75511190  0.55198408    -0.58500
H622        H  0.03262424  0.67589124  0.56615876     0.16100
O623        O  0.15061232  0.54845378  0.58290424    -0.59900
H624        H  0.21120619  0.61759410  0.54639315     0.14600
H625        H  0.23178666  0.88435547  0.51491067     0.46400
H626        H  0.07502800  0.75612059  0.51991550     0.41800
H627        H  0.14897155  0.53193410  0.54858173     0.45200
H628        H  0.27907407  0.65688113  0.60192166     0.36700
C629        C  0.17929934  0.83854530  0.71977531    -0.27500
C630        C  0.20136299  0.85790448  0.76466536     0.02100
C631        C  0.25270166  0.87790565  0.76108838     0.30200
C632        C  0.27814375  0.88142219  0.71331823    -0.19300
C633        C  0.25895114  0.85649181  0.66892581    -0.28700
C634        C  0.20607482  0.83816020  0.67293288     0.44200
C635        C  0.16967683  0.85827282  0.81360250     0.05400
O636        O  0.27876879  0.89534934  0.80364687    -0.57200
H637        H  0.31674541  0.89833192  0.71283830     0.18300
O638        O  0.18009692  0.81442506  0.63395869    -0.63900
H639        H  0.14141845  0.82007186  0.72100116     0.16800
C640        C  0.11548659  0.86957663  0.81422668     0.29000
C641        C  0.08834231  0.87344887  0.86124329    -0.24800
C642        C  0.11172687  0.85819865  0.90847504    -0.24100
C643        C  0.16741595  0.85587858  0.90771211     0.40500
C644        C  0.19431288  0.85123458  0.86109122    -0.26600
O645        O  0.08871027  0.87932274  0.76945360    -0.58500
H646        H  0.04651330  0.87909965  0.85967908     0.16100
O647        O  0.19652804  0.87146345  0.94895660    -0.59900
H648        H  0.23552462  0.84341476  0.86320495     0.14600
H649        H  0.15253006  0.83946190  0.62317484     0.46400
H650        H  0.06384034  0.84988155  0.76590635     0.41800
H651        H  0.22655204  0.84713887  0.95182530     0.45200
H652        H  0.30778114  0.87032529  0.80922347     0.36700
C653        C  0.17968969  0.60545106  0.72939279    -0.27500
C654        C  0.16818056  0.56966171  0.76831652     0.02100
C655        C  0.11982778  0.54302281  0.76499245     0.30200
C656        C  0.09275653  0.54185722  0.71774808    -0.19300
C657        C  0.10239786  0.57899755  0.67851187    -0.28700
C658        C  0.14425159  0.61488276  0.68930958     0.44200
C659        C  0.20656135  0.56185758  0.81140464     0.05400
O660        O  0.09490124  0.52263150  0.80749799    -0.57200
H661        H  0.05934745  0.51641536  0.71474660     0.18300
O662        O  0.14928524  0.66155264  0.66357167    -0.63900
H663        H  0.21337809  0.63060329  0.73329387     0.16800
C664        C  0.25694276  0.54213895  0.80241494     0.29000
C665        C  0.29074425  0.53042081  0.84387429    -0.24800
C666        C  0.28044638  0.54810962  0.89446750    -0.24100
C667        C  0.22651601  0.56066172  0.90320298     0.40500
C668        C  0.19219671  0.57073525  0.86217997    -0.26600
O669        O  0.27371388  0.53377842  0.75314569    -0.58500
H670        H  0.32898878  0.51570942  0.83477346     0.16100
O671        O  0.20346464  0.55471897  0.95013139    -0.59900
H672        H  0.15277010  0.58300205  0.87064207     0.14600
H673        H  0.13766326  0.68876959  0.68793586     0.46400
H674        H  0.29565605  0.56451073  0.74444953     0.41800
H675        H  0.18591861  0.52024302  0.94972924     0.45200
H676        H  0.12121367  0.50924387  0.83182664     0.36700
C677        C  0.23652634  0.63100923  0.01937304    -0.27500
C678        C  0.23924898  0.68432175  0.00483422     0.02100
C679        C  0.28730113  0.70256256  0.98557221     0.30200
C680        C  0.32511852  0.66612971  0.97052521    -0.19300
C681        C  0.31180471  0.61226587  0.96839190    -0.28700
C682        C  0.27615551  0.59587593  0.00573491     0.44200
C683        C  0.19164432  0.71837753  0.00592965     0.05400
O684        O  0.29571519  0.75468108  0.97603043    -0.57200
H685        H  0.35964553  0.68081274  0.95141749     0.18300
O686        O  0.27263927  0.54419201  0.01990278    -0.63900
H687        H  0.20243848  0.61578034  0.03864584     0.16800
C688        C  0.14337428  0.69835684  0.98980548     0.29000
C689        C  0.10115891  0.73169628  0.98320679    -0.24800
C690        C  0.10765188  0.78682200  0.98313235    -0.24100
C691        C  0.14969201  0.80456586  0.01316831     0.40500
C692        C  0.19305823  0.77131038  0.02117207    -0.26600
O693        O  0.13744201  0.64700783  0.97640152    -0.58500
H694        H  0.06517276  0.71377083  0.97106989     0.16100
O695        O  0.15147754  0.85496955  0.03085509    -0.59900
H696        H  0.22770036  0.78723988  0.03877936     0.14600
H697        H  0.29751038  0.53971196  0.04873224     0.46400
H698        H  0.14283765  0.64646614  0.93865428     0.41800
H699        H  0.11780327  0.86129822  0.04787096     0.45200
H700        H  0.28619125  0.76018578  0.93938889     0.36700
C701        C  0.31951358  0.70602753  0.70989965    -0.27500
C702        C  0.35586424  0.71931936  0.74665555     0.02100
C703        C  0.37601564  0.77040339  0.74649116     0.30200
C704        C  0.36664893  0.80411946  0.70426683    -0.19300
C705        C  0.32707207  0.79228086  0.66839790    -0.28700
C706        C  0.29881527  0.74479293  0.67873564     0.44200
C707        C  0.35580596  0.68618955  0.79291504     0.05400
O708        O  0.40128758  0.78895387  0.78894517    -0.57200
H709        H  0.38519002  0.84195547  0.70420753     0.18300
O710        O  0.24868192  0.73728641  0.66208145    -0.63900
H711        H  0.29894046  0.66910266  0.71318967     0.16800
C712        C  0.31414519  0.69156091  0.82668213     0.29000
C713        C  0.30713043  0.65516025  0.86548716    -0.24800
C714        C  0.34434561  0.61536125  0.87728735    -0.24100
C715        C  0.38336740  0.60712169  0.83918315     0.40500
C716        C  0.38822042  0.64232240  0.79728048    -0.26600
O717        O  0.27801549  0.73074687  0.82005854    -0.58500
H718        H  0.27134258  0.65844343  0.88721125     0.16100
O719        O  0.41609366  0.56479766  0.84137095    -0.59900
H720        H  0.41744584  0.63523066  0.76818484     0.14600
H721        H  0.22680671  0.73503762  0.69349405     0.46400
H722        H  0.24864751  0.71458165  0.80111858     0.41800
H723        H  0.41105308  0.54553695  0.80878335     0.45200
H724        H  0.37340257  0.80002613  0.81283571     0.36700
C725        C  0.68560409  0.04915380  0.71184960    -0.27500
C726        C  0.67812904  0.05857099  0.76390958     0.02100
C727        C  0.62631822  0.06051609  0.78194030     0.30200
C728        C  0.58394994  0.05694071  0.74739240    -0.19300
C729        C  0.59107787  0.05767367  0.69300209    -0.28700
C730        C  0.64313290  0.04314886  0.67811284     0.44200
C731        C  0.72321236  0.07006877  0.79895472     0.05400
O732        O  0.61653174  0.06716798  0.83334862    -0.57200
H733        H  0.54526488  0.06123935  0.76337566     0.18300
O734        O  0.65385885  0.01427981  0.63537229    -0.63900
H735        H  0.72474374  0.04314678  0.69756518     0.16800
C736        C  0.76542577  0.03613876  0.81040772     0.29000
C737        C  0.79718200  0.04470578  0.85464307    -0.24800
C738        C  0.79548686  0.09307162  0.88002787    -0.24100
C739        C  0.76364856  0.13257556  0.85496443     0.40500
C740        C  0.72495847  0.11925904  0.81999030    -0.26600
O741        O  0.77751171  0.99641183  0.77779094    -0.58500
H742        H  0.82580532  0.01578335  0.86601259     0.16100
O743        O  0.76804691  0.18457309  0.86674518    -0.59900
H744        H  0.69795783  0.14884210  0.80646086     0.14600
H745        H  0.62464133  0.99015089  0.62985649     0.46400
H746        H  0.80473559  0.01083844  0.75466710     0.41800
H747        H  0.77508009  0.20317659  0.83381570     0.45200
H748        H  0.60269346  0.10319570  0.83637019     0.36700
C749        C  0.69105022  0.29460251  0.58125948    -0.27500
C750        C  0.68277975  0.24973969  0.61201226     0.02100
C751        C  0.71568708  0.24083512  0.65366412     0.30200
C752        C  0.75419762  0.27637650  0.66488066    -0.19300
C753        C  0.76856489  0.31907761  0.63232174    -0.28700
C754        C  0.73439174  0.32829371  0.58984019     0.44200
C755        C  0.64270762  0.20951282  0.60094633     0.05400
O756        O  0.71143894  0.19630036  0.68347107    -0.57200
H757        H  0.77330687  0.26892968  0.70091556     0.18300
O758        O  0.74343546  0.36810290  0.55537225    -0.63900
H759        H  0.66581082  0.30212736  0.54872584     0.16800
C760        C  0.58899715  0.21913983  0.60439483     0.29000
C761        C  0.55411211  0.17659827  0.60698940    -0.24800
C762        C  0.57284033  0.12422900  0.61388863    -0.24100
C763        C  0.62363981  0.11682329  0.59415389     0.40500
C764        C  0.65899938  0.15819280  0.59245826    -0.26600
O765        O  0.57061748  0.26914755  0.60947855    -0.58500
H766        H  0.51331119  0.18552229  0.61210222     0.16100
O767        O  0.63708881  0.07313308  0.56760289    -0.59900
H768        H  0.69932733  0.15034227  0.58301845     0.14600
H769        H  0.70984685  0.38655635  0.55009383     0.46400
H770        H  0.56862986  0.27498535  0.64710140     0.41800
H771        H  0.60477045  0.05478922  0.55850598     0.45200
H772        H  0.70694662  0.20804221  0.71949286     0.36700
C773        C  0.90028471  0.30559413  0.76109294    -0.27500
C774        C  0.88521033  0.25225272  0.75795798     0.02100
C775        C  0.86941072  0.23492943  0.70859956     0.30200
C776        C  0.86329963  0.27101898  0.66778778    -0.19300
C777        C  0.85734959  0.32458564  0.67912979    -0.28700
C778        C  0.88633503  0.34202375  0.72209850     0.44200
C779        C  0.88535693  0.21628948  0.80519650     0.05400
O780        O  0.85659756  0.18372871  0.69997197    -0.57200
H781        H  0.85004214  0.25624129  0.63111070     0.18300
O782        O  0.89124352  0.39443962  0.73153373    -0.63900
H783        H  0.91984783  0.32015266  0.79485453     0.16800
C784        C  0.87617784  0.23577651  0.85501189     0.29000
C785        C  0.87440729  0.20186580  0.89782180    -0.24800
C786        C  0.87103286  0.14672806  0.89334667    -0.24100
C787        C  0.89063980  0.12811052  0.84521143     0.40500
C788        C  0.89568792  0.16201567  0.80205484    -0.26600
O789        O  0.86580181  0.28774318  0.86275684    -0.58500
H790        H  0.87767914  0.22086701  0.93389686     0.16100
O791        O  0.90104705  0.07599766  0.83839185    -0.59900
H792        H  0.90882280  0.14522947  0.76637662     0.14600
H793        H  0.92911981  0.40168304  0.72952669     0.46400
H794        H  0.89588098  0.30138256  0.88251600     0.41800
H795        H  0.92645455  0.06607992  0.86546939     0.45200
H796        H  0.81993494  0.18014346  0.71146236     0.36700
C797        C  0.44709031  0.28741233  0.80281685    -0.27500
C798        C  0.46767735  0.23670831  0.80663202     0.02100
C799        C  0.48586766  0.21944038  0.85522459     0.30200
C800        C  0.49405565  0.25564914  0.89422842    -0.19300
C801        C  0.49011659  0.30975369  0.88334111    -0.28700
C802        C  0.45513789  0.32282639  0.84338287     0.44200
C803        C  0.48378747  0.20669763  0.76059343     0.05400
O804        O  0.50322138  0.16906218  0.86219732    -0.57200
H805        H  0.51161616  0.24178328  0.92972689     0.18300
O806        O  0.43105285  0.37040228  0.84218045    -0.63900
H807        H  0.42816619  0.30051663  0.76777449     0.16800
C808        C  0.45054816  0.18511775  0.72307230     0.29000
C809        C  0.46841156  0.14298054  0.69232124    -0.24800
C810        C  0.52141996  0.12779590  0.69353694    -0.24100
C811        C  0.55557347  0.16168258  0.72162275     0.40500
C812        C  0.53657207  0.19689020  0.75680125    -0.26600
O813        O  0.40103609  0.20402189  0.71670658    -0.58500
H814        H  0.44188860  0.12516668  0.66546562     0.16100
O815        O  0.60857606  0.16004277  0.71528619    -0.59900
H816        H  0.56396588  0.21728254  0.78130023     0.14600
H817        H  0.41054134  0.37183385  0.87414101     0.46400
H818        H  0.40434788  0.23299574  0.69134265     0.41800
H819        H  0.61850823  0.19603160  0.70502863     0.45200
H820        H  0.48112144  0.15385009  0.88977654     0.36700
C821        C  0.69840277  0.16186194  0.95987996    -0.27500
C822        C  0.70981140  0.21557139  0.96113557     0.02100
C823        C  0.76106440  0.23071242  0.97266595     0.30200
C824        C  0.79990247  0.19218612  0.97850689    -0.19300
C825        C  0.79144916  0.14096089  0.96137982    -0.28700
C826        C  0.73826498  0.12434791  0.96290912     0.44200
C827        C  0.66807239  0.25401610  0.94858523     0.05400
O828        O  0.77338670  0.28236630  0.97933875    -0.57200
H829        H  0.83635027  0.20214401  0.99660646     0.18300
O830        O  0.72488548  0.07279954  0.95597655    -0.63900
H831        H  0.65861781  0.14895950  0.95426885     0.16800
C832        C  0.64219568  0.25073224  0.90150436     0.29000
C833        C  0.60050048  0.28350455  0.89070994    -0.24800
C834        C  0.57732227  0.31603361  0.92837623    -0.24100
C835        C  0.60744962  0.32347660  0.97406417     0.40500
C836        C  0.65279781  0.29312489  0.98294048    -0.26600
O837        O  0.65845526  0.21650102  0.86468410    -0.58500
H838        H  0.58452652  0.28201545  0.85216760     0.16100
O839        O  0.59573879  0.36197432  0.00859796    -0.59900
H840        H  0.67507810  0.29918612  0.01775474     0.14600
H841        H  0.74994373  0.05163021  0.97638801     0.46400
H842        H  0.63192028  0.18834599  0.86457607     0.41800
H843        H  0.62658767  0.38528387  0.01005369     0.45200
H844        H  0.78882889  0.29387319  0.94617408     0.36700
C845        C  0.59357767  0.39008485  0.78237428    -0.27500
C846        C  0.64353714  0.39345317  0.80287580     0.02100
C847        C  0.64860660  0.40205742  0.85592003     0.30200
C848        C  0.60403497  0.40814560  0.88620605    -0.19300
C849        C  0.55572889  0.38886637  0.86927480    -0.28700
C850        C  0.54964331  0.38865571  0.81443909     0.44200
C851        C  0.68928623  0.39036538  0.76825305     0.05400
O852        O  0.69667023  0.40429387  0.87886305    -0.57200
H853        H  0.60965075  0.41490054  0.92662438     0.18300
O854        O  0.50360496  0.40263544  0.79165263    -0.63900
H855        H  0.58828665  0.38911946  0.74102420     0.16800
C856        C  0.73028529  0.35644635  0.77960994     0.29000
C857        C  0.77387303  0.35515308  0.74804848    -0.24800
C858        C  0.77659878  0.38186255  0.69961463    -0.24100
C859        C  0.73371789  0.41540774  0.68825578     0.40500
C860        C  0.69192631  0.42064838  0.72306490    -0.26600
O861        O  0.72759648  0.32246549  0.82069516    -0.58500
H862        H  0.80114953  0.32571803  0.75957544     0.16100
O863        O  0.73074758  0.44129104  0.64208362    -0.59900
H864        H  0.66048708  0.44734296  0.71365008     0.14600
H865        H  0.49840183  0.37866327  0.76224252     0.46400
H866        H  0.71186643  0.29012862  0.80678220     0.41800
H867        H  0.69656799  0.43202240  0.62684985     0.45200
H868        H  0.69802282  0.37430693  0.90330624     0.36700
C869        C  0.28181014  0.74118174  0.44569595    -0.27500
C870        C  0.23168296  0.73284677  0.42438746     0.02100
C871        C  0.21359884  0.77064550  0.39015740     0.30200
C872        C  0.24175566  0.81594840  0.38113649    -0.19300
C873        C  0.28997301  0.82897565  0.40494161    -0.28700
C874        C  0.30926811  0.78920147  0.43829237     0.44200
C875        C  0.19646002  0.68680956  0.43660818     0.05400
O876        O  0.16983967  0.76181963  0.36118750    -0.57200
H877        H  0.22629283  0.83766001  0.34993241     0.18300
O878        O  0.35533664  0.79593610  0.46340026    -0.63900
H879        H  0.29979591  0.71107798  0.46891709     0.16800
C880        C  0.21425965  0.63515587  0.43966332     0.29000
C881        C  0.17838896  0.59350483  0.44328847    -0.24800
C882        C  0.12310765  0.60067011  0.44085757    -0.24100
C883        C  0.10658639  0.65331585  0.44835047     0.40500
C884        C  0.14238344  0.69494457  0.44337281    -0.26600
O885        O  0.26638729  0.62421438  0.43542620    -0.58500
H886        H  0.19625901  0.55619496  0.44727044     0.16100
O887        O  0.05455037  0.66585901  0.45112221    -0.59900
H888        H  0.12731459  0.73443964  0.44433847     0.14600
H889        H  0.34642078  0.81367359  0.49588047     0.46400
H890        H  0.27766903  0.61334929  0.47040598     0.41800
H891        H  0.03859908  0.64088195  0.47581133     0.45200
H892        H  0.18297618  0.75062197  0.32712001     0.36700
C893        C  0.97916678  0.70032198  0.20824553    -0.27500
C894        C  0.99008372  0.70756632  0.26051587     0.02100
C895        C  0.99379062  0.75934495  0.27832438     0.30200
C896        C  0.99619427  0.80112551  0.24293156    -0.19300
C897        C  0.00445272  0.79094908  0.19011636    -0.28700
C898        C  0.98220275  0.74302873  0.17365964     0.44200
C899        C  0.01081766  0.66422020  0.29327933     0.05400
O900        O  0.00029568  0.76913872  0.32977935    -0.57200
H901        H  0.00158299  0.84007016  0.25802001     0.18300
O902        O  0.95962662  0.73821922  0.12621821    -0.63900
H903        H  0.97011804  0.66171808  0.19402611     0.16800
C904        C  0.98182290  0.62205410  0.31343373     0.29000
C905        C  0.00361680  0.58936521  0.35230794    -0.24800
C906        C  0.05569389  0.59662804  0.36984069    -0.24100
C907        C  0.08620368  0.63222577  0.33967925     0.40500
C908        C  0.06350275  0.66613770  0.30429216    -0.26600
O909        O  0.93274003  0.61213164  0.29527858    -0.58500
H910        H  0.98028873  0.55695670  0.36567111     0.16100
O911        O  0.13947849  0.63044725  0.34159182    -0.59900
H912        H  0.08812700  0.69361370  0.28417673     0.14600
H913        H  0.93269981  0.76570828  0.12384584     0.46400
H914        H  0.93758815  0.58628999  0.26749842     0.41800
H915        H  0.15230344  0.66686201  0.34135935     0.45200
H916        H  0.03824350  0.77445290  0.33466459     0.36700
C917        C  0.25318110  0.93214707  0.26878347    -0.27500
C918        C  0.20315278  0.92493006  0.28921481     0.02100
C919        C  0.19672143  0.92728120  0.34319157     0.30200
C920        C  0.24078559  0.92703607  0.37542989    -0.19300
C921        C  0.28984614  0.91656298  0.35391449    -0.28700
C922        C  0.29668256  0.93149609  0.30149438     0.44200
C923        C  0.16049617  0.90455284  0.25638375     0.05400
O924        O  0.14794641  0.92328725  0.36464682    -0.57200
H925        H  0.23501682  0.92207841  0.41648015     0.18300
O926        O  0.34560413  0.93570954  0.28054483    -0.63900
H927        H  0.25926069  0.93324575  0.22760637     0.16800
C928        C  0.14515476  0.92712282  0.20940545     0.29000
C929        C  0.10060226  0.90808866  0.18371846    -0.24800
C930        C  0.07793521  0.85889728  0.19695294    -0.24100
C931        C  0.10309029  0.83217886  0.23889416     0.40500
C932        C  0.13782588  0.85753512  0.27092965    -0.26600
O933        O  0.17169626  0.96920222  0.18939889    -0.58500
H934        H  0.08940663  0.92984193  0.15014837     0.16100
O935        O  0.09864678  0.77909282  0.24531856    -0.59900
H936        H  0.15202750  0.83679945  0.30417317     0.14600
H937        H  0.34857188  0.97236186  0.26820816     0.46400
H938        H  0.19126491  0.95537835  0.15959897     0.41800
H939        H  0.13340272  0.76412268  0.23773085     0.45200
H940        H  0.14708941  0.88918153  0.38309761     0.36700
C941        C  0.42909087  0.80362625  0.29213170    -0.27500
C942        C  0.39484252  0.77356966  0.26225490     0.02100
C943        C  0.34238826  0.78618048  0.26243778     0.30200
C944        C  0.32345858  0.82080467  0.29810751    -0.19300
C945        C  0.35500194  0.84483446  0.33641020    -0.28700
C946        C  0.40956047  0.83986935  0.32850332     0.44200
C947        C  0.40720823  0.72106907  0.24240059     0.05400
O948        O  0.30782686  0.75960993  0.23200180    -0.57200
H949        H  0.28271667  0.82846140  0.29443081     0.18300
O950        O  0.44431250  0.86992862  0.35464717    -0.63900
H951        H  0.47063598  0.79717238  0.28938682     0.16800
C952        C  0.42177269  0.71176169  0.19127858     0.29000
C953        C  0.41304712  0.66194251  0.16985889    -0.24800
C954        C  0.38484955  0.62309756  0.19649480    -0.24100
C955        C  0.38468798  0.62951054  0.25134343     0.40500
C956        C  0.39001940  0.67889930  0.27214851    -0.26600
O957        O  0.44178670  0.75136383  0.16145507    -0.58500
H958        H  0.42454491  0.65496763  0.13115806     0.16100
O959        O  0.37739740  0.58914742  0.28587292    -0.59900
H960        H  0.37842497  0.68435306  0.31168482     0.14600
H961        H  0.45201053  0.89962624  0.33105018     0.46400
H962        H  0.41138885  0.76674230  0.14326337     0.41800
H963        H  0.40307787  0.56194848  0.27696876     0.45200
H964        H  0.31842114  0.76767242  0.19611749     0.36700
C965        C  0.20402807  0.48019314  0.37189614    -0.27500
C966        C  0.20633844  0.49819388  0.32073217     0.02100
C967        C  0.15998560  0.51325023  0.29687574     0.30200
C968        C  0.11549360  0.52104953  0.32607664    -0.19300
C969        C  0.11742468  0.51970734  0.38029524    -0.28700
C970        C  0.15770658  0.48727397  0.40094787     0.44200
C971        C  0.25478737  0.51620893  0.29515890     0.05400
O972        O  0.15939399  0.52617377  0.24549471    -0.57200
H973        H  0.08141211  0.53425622  0.30534461     0.18300
O974        O  0.15750925  0.47235754  0.45173399    -0.63900
H975        H  0.23884534  0.46556710  0.39064766     0.16800
C976        C  0.25783796  0.56950904  0.28375621     0.29000
C977        C  0.28364413  0.58633779  0.24029180    -0.24800
C978        C  0.31767755  0.55346171  0.21201925    -0.24100
C979        C  0.32429882  0.50186487  0.23261305     0.40500
C980        C  0.28965018  0.48251287  0.27073328    -0.26600
O981        O  0.23109410  0.60522790  0.31218079    -0.58500
H982        H  0.28031195  0.62756455  0.23068692     0.16100
O983        O  0.36597246  0.47162229  0.21994316    -0.59900
H984        H  0.29041117  0.44174124  0.28179774     0.14600
H985        H  0.15504468  0.43370587  0.45155646     0.46400
H986        H  0.25807726  0.62514288  0.33102464     0.41800
H987        H  0.39300328  0.47887035  0.24614352     0.45200
H988        H  0.15353964  0.56441428  0.24440257     0.36700
C989        C  0.26710166  0.69578849  0.11595236    -0.27500
C990        C  0.21709334  0.67838820  0.13006273     0.02100
C991        C  0.21020577  0.62419817  0.13825737     0.30200
C992        C  0.25319874  0.59054801  0.13573495    -0.19300
C993        C  0.30492853  0.61055909  0.13447983    -0.28700
C994        C  0.30966769  0.66217674  0.11505966     0.44200
C995        C  0.17264807  0.71634417  0.13024049     0.05400
O996        O  0.16222012  0.60314110  0.14888777    -0.57200
H997        H  0.24638344  0.54949985  0.14347584     0.18300
O998        O  0.35224325  0.67862162  0.08767566    -0.63900
H999        H  0.27295784  0.73478416  0.10076556     0.16800
C1000       C  0.18121425  0.76898813  0.14214858     0.29000
C1001       C  0.14182616  0.80517053  0.13510402    -0.24800
C1002       C  0.08878920  0.79008511  0.13108168    -0.24100
C1003       C  0.08186906  0.73942888  0.11011222     0.40500
C1004       C  0.12296223  0.70293331  0.11131041    -0.26600
O1005       O  0.22784689  0.78632498  0.16112946    -0.58500
H1006       H  0.15364381  0.84518626  0.13869958     0.16100
O1007       O  0.03982708  0.72724837  0.08026642    -0.59900
H1008       H  0.11651096  0.66519188  0.09401897     0.14600
H1009       H  0.36171247  0.64960178  0.06450437     0.46400
H1010       H  0.22072679  0.79614859  0.19729194     0.41800
H1011       H  0.03230276  0.75845253  0.05862129     0.45200
H1012       H  0.14927326  0.62184082  0.17956906     0.36700
C1013       C  0.17940211  0.44750589  0.72816123    -0.27500
C1014       C  0.17205199  0.43235516  0.78036507     0.02100
C1015       C  0.12075449  0.41770310  0.79479667     0.30200
C1016       C  0.08134303  0.41456907  0.75753230    -0.19300
C1017       C  0.09511253  0.41088329  0.70506014    -0.28700
C1018       C  0.14059275  0.43789705  0.69050511     0.44200
C1019       C  0.21674859  0.43045958  0.81864522     0.05400
O1020       O  0.10880971  0.40282765  0.84421677    -0.57200
H1021       H  0.04303472  0.40214147  0.77013258     0.18300
O1022       O  0.14928593  0.44950824  0.63944366    -0.63900
H1023       H  0.21548985  0.46495363  0.71563581     0.16800
C1024       C  0.26796549  0.41716984  0.80360109     0.29000
C1025       C  0.30596144  0.40608745  0.84115616    -0.24800
C1026       C  0.29114214  0.39710466  0.89287077    -0.24100
C1027       C  0.24632126  0.42462105  0.90886397     0.40500
C1028       C  0.20883294  0.43960512  0.87177871    -0.26600
O1029       O  0.27980612  0.40740265  0.75312231    -0.58500
H1030       H  0.34251579  0.39214900  0.82697879     0.16100
O1031       O  0.23336559  0.42659560  0.95995458    -0.59900
H1032       H  0.17249644  0.45546856  0.88537677     0.14600
H1033       H  0.18552981  0.43892637  0.63143929     0.46400
H1034       H  0.30635816  0.43380077  0.74327785     0.41800
H1035       H  0.25591125  0.45414698  0.97453836     0.45200
H1036       H  0.11873876  0.36543550  0.84683732     0.36700
C1037       C  0.12088140  0.18214296  0.98179363    -0.27500
C1038       C  0.17080026  0.18051034  0.96109269     0.02100
C1039       C  0.18496765  0.13769546  0.93126071     0.30200
C1040       C  0.14789453  0.09956458  0.91965669    -0.19300
C1041       C  0.09752229  0.09813495  0.94290185    -0.28700
C1042       C  0.08629285  0.14045080  0.97640651     0.44200
C1043       C  0.20342856  0.22803400  0.96182430     0.05400
O1044       O  0.23338167  0.13508590  0.90907489    -0.57200
H1045       H  0.15858596  0.07420465  0.88877542     0.18300
O1046       O  0.03982501  0.14482307  0.00122478    -0.63900
H1047       H  0.10832568  0.21663014  0.00213275     0.16800
C1048       C  0.18749095  0.27156072  0.93350650     0.29000
C1049       C  0.22111441  0.31350828  0.92688450    -0.24800
C1050       C  0.27020659  0.31735690  0.95238681    -0.24100
C1051       C  0.28265577  0.27502701  0.98635799     0.40500
C1052       C  0.25127881  0.22937527  0.98743074    -0.26600
O1053       O  0.14180930  0.27047057  0.90604820    -0.58500
H1054       H  0.20977141  0.33895319  0.89589083     0.16100
O1055       O  0.32697374  0.27736436  0.01608528    -0.59900
H1056       H  0.26328817  0.19557608  0.00989946     0.14600
H1057       H  0.03692946  0.11325635  0.02261011     0.46400
H1058       H  0.11670917  0.29110756  0.92654147     0.41800
H1059       H  0.32726432  0.24755460  0.04075925     0.45200
H1060       H  0.23429958  0.16385238  0.88337063     0.36700
C1061       C  0.06517050  0.26817409  0.78452956    -0.27500
C1062       C  0.02400479  0.23597641  0.77236304     0.02100
C1063       C  0.99935858  0.24336842  0.72436032     0.30200
C1064       C  0.00672738  0.29072263  0.69649099    -0.19300
C1065       C  0.04916605  0.32365485  0.70833162    -0.28700
C1066       C  0.08268570  0.30460665  0.74895756     0.44200
C1067       C  0.01907471  0.18838006  0.80458785     0.05400
O1068       O  0.97183422  0.20333947  0.70276180    -0.57200
H1069       H  0.98319008  0.29838005  0.66274833     0.18300
O1070       O  0.13366879  0.31992733  0.75368670    -0.63900
H1071       H  0.08943752  0.25895712  0.81754988     0.16800
C1072       C  0.05096232  0.14617194  0.79359721     0.29000
C1073       C  0.06037536  0.10865450  0.83130437    -0.24800
C1074       C  0.03111935  0.10392368  0.87787771    -0.24100
C1075       C  0.99981066  0.14850074  0.88874053     0.40500
C1076       C  0.99731321  0.19106365  0.85391958    -0.26600
O1077       O  0.07956460  0.14540718  0.74906356    -0.58500
H1078       H  0.09483340  0.08582378  0.82486517     0.16100
O1079       O  0.97455197  0.15421029  0.93444132    -0.59900
H1080       H  0.97873981  0.22689662  0.86581809     0.14600
H1081       H  0.15507414  0.28781645  0.75016921     0.46400
H1082       H  0.11330821  0.16211242  0.75770272     0.41800
H1083       H  0.95471433  0.12182513  0.93975570     0.45200
H1084       H  0.99734643  0.18429744  0.68129401     0.36700
C1085       C  0.36661845  0.21268084  0.87667602    -0.27500
C1086       C  0.34091276  0.20906001  0.82935645     0.02100
C1087       C  0.31583111  0.25403670  0.81086620     0.30200
C1088       C  0.30751246  0.29584128  0.84301451    -0.19300
C1089       C  0.33576499  0.30464523  0.88917453    -0.28700
C1090       C  0.36690064  0.26024951  0.90515668     0.44200
C1091       C  0.33203812  0.15881326  0.80118759     0.05400
O1092       O  0.29321556  0.25531496  0.76302087    -0.57200
H1093       H  0.27440152  0.31898431  0.83200121     0.18300
O1094       O  0.39763766  0.26211000  0.94824715    -0.63900
H1095       H  0.38650494  0.17859321  0.89190314     0.16800
C1096       C  0.37105166  0.12362954  0.78502167     0.29000
C1097       C  0.36236420  0.09160991  0.74134185    -0.24800
C1098       C  0.31265196  0.08943827  0.71779143    -0.24100
C1099       C  0.27151560  0.11655320  0.74372525     0.40500
C1100       C  0.28175690  0.15051538  0.78333235    -0.26600
O1101       O  0.41817869  0.12187060  0.80954149    -0.58500
H1102       H  0.39375016  0.06731413  0.72773301     0.16100
O1103       O  0.22011563  0.10993049  0.73065429    -0.59900
H1104       H  0.24955341  0.17323152  0.79810921     0.14600
H1105       H  0.39451958  0.22796305  0.96643285     0.46400
H1106       H  0.41469828  0.09364141  0.83569156     0.41800
H1107       H  0.20234104  0.09569053  0.76160765     0.45200
H1108       H  0.31955811  0.27198520  0.74035100     0.36700
C1109       C  0.12729750  0.24511631  0.60269147    -0.27500
C1110       C  0.17870189  0.24108184  0.62121867     0.02100
C1111       C  0.19832305  0.28661369  0.64446884     0.30200
C1112       C  0.16590983  0.33051384  0.65331662    -0.19300
C1113       C  0.11170823  0.33309779  0.63977189    -0.28700
C1114       C  0.09525768  0.28942117  0.61045420     0.44200
C1115       C  0.20926728  0.18902309  0.61979441     0.05400
O1116       O  0.24747803  0.28697416  0.66507070    -0.57200
H1117       H  0.18417931  0.35821930  0.67778083     0.18300
O1118       O  0.04553682  0.28691335  0.59268306    -0.63900
H1119       H  0.11025458  0.21270422  0.58316441     0.16800
C1120       C  0.18404230  0.13976163  0.62298595     0.29000
C1121       C  0.21242589  0.09288456  0.62851446    -0.24800
C1122       C  0.26718820  0.09177287  0.63548639    -0.24100
C1123       C  0.29277182  0.13973552  0.62255258     0.40500
C1124       C  0.26435395  0.18711864  0.61661648    -0.26600
O1125       O  0.13089708  0.13603268  0.62524901    -0.58500
H1126       H  0.18843402  0.05956120  0.63424812     0.16100
O1127       O  0.34614275  0.14254631  0.62358938    -0.59900
H1128       H  0.28625168  0.22252193  0.60955009     0.14600
H1129       H  0.04658029  0.30956210  0.56196516     0.46400
H1130       H  0.12207023  0.14133965  0.66186409     0.41800
H1131       H  0.35809161  0.12312699  0.59296252     0.45200
H1132       H  0.26782160  0.31130122  0.64297939     0.36700
C1133       C  0.15453336  0.97403459  0.86865894    -0.27500
C1134       C  0.14276814  0.98210038  0.81592993     0.02100
C1135       C  0.08936840  0.98983318  0.80360063     0.30200
C1136       C  0.05357090  0.99985565  0.84324549    -0.19300
C1137       C  0.07313976  0.01401674  0.89196450    -0.28700
C1138       C  0.11963455  0.98912312  0.90706552     0.44200
C1139       C  0.18600088  0.98422239  0.77650363     0.05400
O1140       O  0.07231160  0.99403230  0.75377242    -0.57200
H1141       H  0.01413645  0.01048523  0.83255532     0.18300
O1142       O  0.13647960  0.99053797  0.95712539    -0.63900
H1143       H  0.19164403  0.95872678  0.88094686     0.16800
C1144       C  0.23747706  0.99703792  0.79147285     0.29000
C1145       C  0.27653058  0.99938959  0.75476268    -0.24800
C1146       C  0.26334375  0.00937585  0.70290937    -0.24100
C1147       C  0.21665133  0.98581491  0.68649421     0.40500
C1148       C  0.17793230  0.97374814  0.72338218    -0.26600
O1149       O  0.24976478  0.01324163  0.84023272    -0.58500
H1150       H  0.31578533  0.00577882  0.76844953     0.16100
O1151       O  0.20861230  0.97319023  0.63578080    -0.59900
H1152       H  0.14234039  0.95610237  0.70994174     0.14600
H1153       H  0.13435281  0.95401954  0.96987077     0.46400
H1154       H  0.27547715  0.98764783  0.85385564     0.41800
H1155       H  0.24055350  0.95508303  0.62415744     0.45200
H1156       H  0.07826888  0.03104820  0.74373460     0.36700
C1157       C  0.00703726  0.16390177  0.26344583    -0.27500
C1158       C  0.97861333  0.20789356  0.24874321     0.02100
C1159       C  0.95611441  0.20756051  0.19852272     0.30200
C1160       C  0.96570961  0.16422438  0.16509167    -0.19300
C1161       C  0.99684655  0.12143981  0.18189154    -0.28700
C1162       C  0.00133605  0.11860810  0.23615635     0.44200
C1163       C  0.96910542  0.24731305  0.29042758     0.05400
O1164       O  0.92650954  0.24881512  0.18147468    -0.57200
H1165       H  0.95264683  0.16622286  0.12547954     0.18300
O1166       O  0.99795266  0.07250994  0.26314510    -0.63900
H1167       H  0.02637690  0.16109519  0.30029323     0.16800
C1168       C  0.96670235  0.23040729  0.34236768     0.29000
C1169       C  0.97492999  0.26559247  0.38215021    -0.24800
C1170       C  0.98649784  0.31844184  0.37280918    -0.24100
C1171       C  0.96965752  0.33663448  0.32294096     0.40500
C1172       C  0.96663272  0.30135530  0.28139436    -0.26600
O1173       O  0.95528787  0.17923799  0.35486845    -0.58500
H1174       H  0.97116694  0.24924659  0.41942347     0.16100
O1175       O  0.96690516  0.38903526  0.31176177    -0.59900
H1176       H  0.96448649  0.31664729  0.24252297     0.14600
H1177       H  0.96855112  0.07623373  0.28758205     0.46400
H1178       H  0.98352012  0.16673368  0.37804383     0.41800
H1179       H  0.94441976  0.40420834  0.33865395     0.45200
H1180       H  0.89098143  0.23449151  0.17654035     0.36700
C1181       C  0.08936841  0.23106561  0.48556107    -0.27500
C1182       C  0.14341700  0.23261369  0.47419819     0.02100
C1183       C  0.16120291  0.27755164  0.44727692     0.30200
C1184       C  0.12624564  0.31617098  0.43059156    -0.19300
C1185       C  0.07142099  0.31019446  0.43422906    -0.28700
C1186       C  0.05443167  0.27108301  0.46906285     0.44200
C1187       C  0.18151713  0.18905058  0.48974124     0.05400
O1188       O  0.21213624  0.28216991  0.43189042    -0.57200
H1189       H  0.14283710  0.34931670  0.41033979     0.18300
O1190       O  0.00584651  0.27546069  0.49127956    -0.63900
H1191       H  0.07356355  0.19994663  0.50892882     0.16800
C1192       C  0.16794160  0.13552554  0.49502614     0.29000
C1193       C  0.20751818  0.09706527  0.49891574    -0.24800
C1194       C  0.25975799  0.10856519  0.48609038    -0.24100
C1195       C  0.27315509  0.16099221  0.49833422     0.40500
C1196       C  0.23445690  0.20046228  0.49923527    -0.26600
O1197       O  0.11702990  0.11971477  0.49708276    -0.58500
H1198       H  0.19721578  0.05842268  0.51211767     0.16100
O1199       O  0.32411914  0.17353781  0.50869915    -0.59900
H1200       H  0.24646425  0.24010185  0.50701952     0.14600
H1201       H  0.99486335  0.24029077  0.50352020     0.46400
H1202       H  0.10684012  0.11385772  0.46081431     0.41800
H1203       H  0.33145925  0.20728388  0.49106810     0.45200
H1204       H  0.22621388  0.31277301  0.45053103     0.36700
C1205       C  0.10383256  0.01704551  0.26448442    -0.27500
C1206       C  0.14389674  0.05236909  0.27753205     0.02100
C1207       C  0.14804780  0.09808231  0.24868888     0.30200
C1208       C  0.11607233  0.10649647  0.20627105    -0.19300
C1209       C  0.07937816  0.06900392  0.18724749    -0.28700
C1210       C  0.07320331  0.02363982  0.21866357     0.44200
C1211       C  0.18175814  0.04391941  0.32097783     0.05400
O1212       O  0.18101738  0.13717090  0.26416333    -0.57200
H1213       H  0.11826131  0.14555906  0.19063027     0.18300
O1214       O  0.03284366  0.98970353  0.20863231    -0.63900
H1215       H  0.09690280  0.98346578  0.28911507     0.16800
C1216       C  0.16580544  0.03653650  0.37211553     0.29000
C1217       C  0.20332842  0.03278860  0.41172890    -0.24800
C1218       C  0.25691260  0.04487215  0.40373549    -0.24100
C1219       C  0.27277317  0.04181070  0.35103723     0.40500
C1220       C  0.23565438  0.04455780  0.31102745    -0.26600
O1221       O  0.11401216  0.03046429  0.38377480    -0.58500
H1222       H  0.19003357  0.01665715  0.44744837     0.16100
O1223       O  0.32449936  0.04484449  0.33781592    -0.59900
H1224       H  0.24921874  0.04791509  0.27168136     0.14600
H1225       H  0.01795470  0.97799339  0.24199672     0.46400
H1226       H  0.09844993  0.06575640  0.37976572     0.41800
H1227       H  0.34238522  0.01704756  0.35787107     0.45200
H1228       H  0.15939854  0.16065109  0.28553903     0.36700
C1229       C  0.36747727  0.28969749  0.30561566    -0.27500
C1230       C  0.36775074  0.23564223  0.29861762     0.02100
C1231       C  0.37745936  0.21594940  0.24897273     0.30200
C1232       C  0.37930842  0.25033828  0.20638474    -0.19300
C1233       C  0.36236421  0.30235813  0.21247802    -0.28700
C1234       C  0.36911735  0.32356401  0.26269150     0.44200
C1235       C  0.34912865  0.20050213  0.34002747     0.05400
O1236       O  0.38065158  0.16308028  0.24113971    -0.57200
H1237       H  0.38198969  0.23388764  0.16823211     0.18300
O1238       O  0.36462342  0.37629012  0.27053420    -0.63900
H1239       H  0.36240208  0.30565487  0.34374475     0.16800
C1240       C  0.37874573  0.18680969  0.38347471     0.29000
C1241       C  0.36496692  0.14250909  0.41304849    -0.24800
C1242       C  0.31421505  0.12231829  0.40903377    -0.24100
C1243       C  0.27870737  0.15098358  0.37643690     0.40500
C1244       C  0.29778321  0.18401402  0.33816993    -0.26600
O1245       O  0.41331499  0.22199409  0.40292075    -0.58500
H1246       H  0.39053159  0.12936825  0.44362161     0.16100
O1247       O  0.22571060  0.14395344  0.37942100    -0.59900
H1248       H  0.27159187  0.19940943  0.30898492     0.14600
H1249       H  0.39301008  0.38591507  0.29456305     0.46400
H1250       H  0.39228587  0.24605794  0.42421326     0.41800
H1251       H  0.21065271  0.17892875  0.38610748     0.45200
H1252       H  0.34445663  0.15157378  0.23414754     0.36700
C1253       C  0.11170994  0.32395159  0.27422167    -0.27500
C1254       C  0.12489310  0.37434457  0.25826593     0.02100
C1255       C  0.09508034  0.41496960  0.27821399     0.30200
C1256       C  0.07052030  0.40894976  0.32675679    -0.19300
C1257       C  0.06824699  0.35940723  0.35099054    -0.28700
C1258       C  0.08719905  0.31607646  0.32134381     0.44200
C1259       C  0.18046661  0.38189930  0.24245222     0.05400
O1260       O  0.08193804  0.45583465  0.24640057    -0.57200
H1261       H  0.04859779  0.44116528  0.34221891     0.18300
O1262       O  0.08108699  0.26527274  0.33797717    -0.63900
H1263       H  0.12955385  0.29061564  0.25567324     0.16800
C1264       C  0.21756783  0.35367170  0.27059207     0.29000
C1265       C  0.26128587  0.33637595  0.24593304    -0.24800
C1266       C  0.28127474  0.36008883  0.20056269    -0.24100
C1267       C  0.24899354  0.39971974  0.17832426     0.40500
C1268       C  0.19736234  0.40772724  0.19721144    -0.26600
O1269       O  0.20703092  0.33407128  0.31883537    -0.58500
H1270       H  0.27703300  0.30095137  0.26211810     0.16100
O1271       O  0.26541218  0.42747993  0.13612523    -0.59900
H1272       H  0.17058338  0.43237846  0.17583942     0.14600
H1273       H  0.11671020  0.25134666  0.34378271     0.46400
H1274       H  0.21808303  0.36190415  0.34279051     0.41800
H1275       H  0.27519531  0.46227516  0.14920345     0.45200
H1276       H  0.05037250  0.44418229  0.22770017     0.36700
C1277       C  0.16202703  0.13956533  0.08600865    -0.27500
C1278       C  0.15833861  0.19316973  0.09669785     0.02100
C1279       C  0.10907432  0.21485610  0.10499789     0.30200
C1280       C  0.06571537  0.18236154  0.10949526    -0.19300
C1281       C  0.07081762  0.12700931  0.11114793    -0.28700
C1282       C  0.11837308  0.10676615  0.09109316     0.44200
C1283       C  0.20561232  0.22406317  0.10827011     0.05400
O1284       O  0.10319850  0.26755386  0.11268930    -0.57200
H1285       H  0.03015373  0.20288557  0.11480754     0.18300
O1286       O  0.12523924  0.05387231  0.08607094    -0.63900
H1287       H  0.19958917  0.12248888  0.07733599     0.16800
C1288       C  0.23779736  0.20762274  0.14837165     0.29000
C1289       C  0.27506242  0.24131431  0.16771607    -0.24800
C1290       C  0.28995339  0.28850069  0.14246777    -0.24100
C1291       C  0.25755320  0.30418262  0.10057301     0.40500
C1292       C  0.21445817  0.27328797  0.08593061    -0.26600
O1293       O  0.22846804  0.16139846  0.17378327    -0.58500
H1294       H  0.28796713  0.23116229  0.20569928     0.16100
O1295       O  0.26787226  0.34947290  0.07359948    -0.59900
H1296       H  0.18861512  0.28729064  0.05585151     0.14600
H1297       H  0.12928108  0.04808456  0.04864905     0.46400
H1298       H  0.25658643  0.13744687  0.16267476     0.41800
H1299       H  0.23397152  0.36658515  0.06606967     0.45200
H1300       H  0.10687239  0.27235327  0.15035288     0.36700
loop_ 
_geom_bond_atom_site_label_1 
_geom_bond_atom_site_label_2 
_geom_bond_distance 
_geom_bond_site_symmetry_2 
_ccdc_geom_bond_type 
C1           C17   1.573       .  S
C1         C1233   1.583       .  S
C1         C1266   1.578       .  S
C1         C1290   1.569       .  S
C2           C50   1.620       .  S
C2         C1194   1.613       .  S
C2         C1218   1.612       .  S
C2         C1242   1.564       .  S
C3          C114   1.605       .  S
C3         C1161   1.596   1_455  S
C3         C1209   1.603       .  S
C3         C1281   1.576       .  S
C4          C147   1.592       .  S
C4         C1170   1.590   1_455  S
C4         C1185   1.593       .  S
C4         C1257   1.579       .  S
C5           C52   1.581       .  S
C5         C1098   1.585       .  S
C5         C1122   1.601       .  S
C5         C1146   1.568       .  S
C6           C95   1.585       .  S
C6         C1041   1.580       .  S
C6         C1074   1.586       .  S
C6         C1137   1.564       .  S
C7          C145   1.638       .  S
C7         C1017   1.570       .  S
C7         C1065   1.578       .  S
C7         C1113   1.626       .  S
C8           C20   1.604       .  S
C8         C1026   1.587       .  S
C8         C1050   1.574       .  S
C8         C1089   1.611       .  S
O9           C17   1.276       .  A
O9          Co29   2.052       .  S
O10          C18   1.312       .  A
O10         Co30   2.142   1_556  S
O11          C19   1.257       .  A
O11         Co31   1.970       .  S
O12          C20   1.283       .  A
O12         Co32   2.066       .  S
O13          C19   1.292       .  A
O13         Co30   2.092       .  S
O14          C20   1.252       .  A
O14         Co29   2.011   1_556  S
O15          C18   1.275       .  A
O15         Co32   1.961       .  S
O16          C17   1.261       .  A
O16         Co31   2.000       .  S
C18          C75   1.601       .  S
C19          C38   1.568       .  S
O21          C34   1.272       .  A
O21         Co29   2.003   1_556  S
O22          C35   1.284       .  A
O22         Co30   2.071       .  S
O23          C36   1.270       .  A
O23         Co31   2.025       .  S
O24          C37   1.301       .  A
O24         Co32   2.131       .  S
O25          C37   1.282   1_554  A
O25         Co30   1.938       .  S
O26          C36   1.263       .  A
O26         Co29   1.987       .  S
O27          C34   1.280       .  A
O27         Co32   2.038       .  S
O28          C35   1.259       .  A
O28         Co31   2.041       .  S
Co29         O33   2.144       .  S
Co30         O33   2.104       .  S
Co31         O33   2.133       .  S
Co32         O33   2.096   1_556  S
C34          C71   1.564       .  S
C35          C81   1.615       .  S
C36         C118   1.559       .  S
C37          C83   1.587       .  S
C38         C954   1.593       .  S
C38         C978   1.589       .  S
C38         C993   1.577       .  S
C39         C113   1.566       .  S
C39         C897   1.595       .  S
C39         C930   1.594       .  S
C39        C1002   1.595       .  S
C40         C128   1.588       .  S
C40         C882   1.602       .  S
C40         C906   1.599       .  S
C40         C969   1.587       .  S
C41          C69   1.598       .  S
C41         C873   1.609       .  S
C41         C921   1.560       .  S
C41         C945   1.589       .  S
O42          C50   1.310       .  A
O42         Co62   2.183   1_545  S
O43          C51   1.290       .  A
O43         Co63   2.108   1_545  S
O44          C52   1.316       .  A
O44         Co64   2.145   1_545  S
O45          C53   1.271       .  A
O45         Co65   2.016   1_545  S
O46          C52   1.289   1_565  A
O46         Co63   1.945       .  S
O47          C53   1.297       .  A
O47         Co62   2.075   1_545  S
O48          C51   1.256       .  A
O48         Co65   1.988   1_545  S
O49          C50   1.244       .  A
O49         Co64   1.963   1_545  S
C51          C73   1.606       .  S
C53         C116   1.589       .  S
O54          C67   1.293       .  A
O54         Co62   2.129       .  S
O55          C68   1.292       .  A
O55         Co63   2.134       .  S
O56          C69   1.321       .  A
O56         Co64   2.173       .  S
O57          C70   1.280       .  A
O57         Co65   2.048       .  S
O58          C70   1.297       .  A
O58         Co63   2.069       .  S
O59          C69   1.285       .  A
O59         Co62   1.936       .  S
O60          C67   1.255       .  A
O60         Co65   1.979       .  S
O61          C68   1.244       .  A
O61         Co64   1.942       .  S
Co62         O66   2.042       .  S
Co63         O66   2.030       .  S
Co64         O66   2.152       .  S
Co65         O66   2.115       .  S
C67          C79   1.616       .  S
C68          C76   1.594       .  S
C70          C85   1.586       .  S
C71         C801   1.574       .  S
C71         C834   1.595       .  S
C71         C849   1.586       .  S
C72         C148   1.597       .  S
C72         C753   1.589       .  S
C72         C777   1.590       .  S
C72         C858   1.578       .  S
C73         C729   1.631       .  S
C73         C762   1.600       .  S
C73         C810   1.580       .  S
C74          C98   1.646       .  S
C74         C738   1.599       .  S
C74         C786   1.610       .  S
C74         C825   1.584       .  S
C75         C666   1.600       .  S
C75         C681   1.576       .  S
C75         C714   1.584       .  S
C76         C609   1.581       .  S
C76         C633   1.583       .  S
C76         C705   1.571       .  S
C77         C131   1.617       .  S
C77         C585   1.616       .  S
C77         C618   1.569       .  S
C77         C657   1.589       .  S
C78          C97   1.614       .  S
C78         C594   1.610       .  S
C78         C642   1.588       .  S
C78         C690   1.579       .  S
C79         C513   1.580       .  S
C79         C537   1.597       .  S
C79         C561   1.594       .  S
C80         C130   1.600       .  S
C80         C474   1.579       .  S
C80         C498   1.622       .  S
C80         C570   1.573       .  S
C81         C441   1.584       .  S
C81         C465   1.583       .  S
C81         C522   1.603       .  S
C82         C115   1.621       .  S
C82         C450   1.582       .  S
C82         C489   1.627       .  S
C82         C546   1.597       .  S
C83         C369   1.571       .  S
C83         C402   1.613       .  S
C83         C417   1.582       .  S
C84         C129   1.646       .  S
C84         C321   1.642       .  S
C84         C345   1.596       .  S
C84         C393   1.599       .  S
C85         C297   1.560       .  S
C85         C330   1.631       .  S
C85         C378   1.561       .  S
C86          C96   1.565       .  S
C86         C306   1.572       .  S
C86         C354   1.600       .  S
C86         C426   1.565       .  S
O87          C95   1.275   1_655  A
O87        Co107   2.074   1_556  S
O88          C96   1.269       .  A
O88        Co108   1.993   1_556  S
O89          C97   1.289       .  A
O89        Co109   2.080   1_556  S
O90          C98   1.320       .  A
O90        Co110   2.221   1_546  S
O91          C97   1.271   1_655  A
O91        Co108   2.050   1_556  S
O92          C98   1.280   1_554  A
O92        Co107   1.980       .  S
O93          C96   1.291       .  A
O93        Co110   2.062   1_556  S
O94          C95   1.261   1_554  A
O94        Co109   2.005   1_545  S
O99         C112   1.303       .  A
O99        Co107   2.152       .  S
O100        C113   1.268   1_655  A
O100       Co108   2.019       .  S
O101        C114   1.284       .  A
O101       Co109   2.054   1_545  S
O102        C115   1.282       .  A
O102       Co110   2.106       .  S
O103        C115   1.262       .  A
O103       Co108   2.041       .  S
O104        C114   1.291   1_655  A
O104       Co107   2.071       .  S
O105        C112   1.283       .  A
O105       Co110   1.932   1_545  S
O106        C113   1.262       .  A
O106       Co109   2.009       .  S
Co107       O111   2.118   1_545  S
Co108       O111   2.153       .  S
Co109       O111   2.141   1_455  S
Co110       O111   2.107       .  S
C112        C117   1.591       .  S
C116        C234   1.580       .  S
C116        C258   1.622       .  S
C116        C273   1.548       .  S
C117        C186   1.544       .  S
C117        C210   1.618       .  S
C117        C282   1.577       .  S
C118        C162   1.571       .  S
C118        C177   1.573       .  S
C118        C225   1.559       .  S
C119        C146   1.666       .  S
C119        C153   1.591       .  S
C119        C201   1.659       .  S
C119        C249   1.605       .  S
O120        C128   1.269       .  A
O120       Co140   2.044       .  S
O121        C129   1.317       .  A
O121       Co141   2.190       .  S
O122        C130   1.262       .  A
O122       Co142   2.014       .  S
O123        C131   1.278   1_655  A
O123       Co143   2.037       .  S
O124        C130   1.292       .  A
O124       Co141   2.084       .  S
O125        C131   1.294       .  A
O125       Co140   2.107       .  S
O126        C129   1.284       .  A
O126       Co143   1.997       .  S
O127        C128   1.265   1_655  A
O127       Co142   2.014       .  S
O132        C145   1.256       .  A
O132       Co140   1.996       .  S
O133        C146   1.293       .  A
O133       Co141   2.125       .  S
O134        C147   1.276   1_655  A
O134       Co142   2.058       .  S
O135        C148   1.311       .  A
O135       Co143   2.126       .  S
O136        C148   1.278       .  A
O136       Co141   1.944       .  S
O137        C147   1.277       .  A
O137       Co140   2.019       .  S
O138        C145   1.302   1_655  A
O138       Co143   2.151       .  S
O139        C146   1.283       .  A
O139       Co142   2.075       .  S
Co140       O144   2.155   1_455  S
Co141       O144   2.138       .  S
Co142       O144   2.155       .  S
Co143       O144   2.138       .  S
C149        C150   1.396       .  A
C149        C154   1.398       .  A
C149        H159   1.081       .  S
C150        C151   1.417       .  A
C150        C155   1.490       .  S
C151        C152   1.410       .  A
C151        O156   1.373       .  S
C152        C153   1.419       .  A
C152        H157   1.083       .  S
C153        C154   1.419       .  A
C154        O158   1.376       .  S
C155        C160   1.415       .  A
C155        C164   1.388       .  A
O156        H172   0.992       .  S
O158        H169   0.986       .  S
C160        C161   1.416       .  A
C160        O165   1.371       .  S
C161        C162   1.412       .  A
C161        H166   1.083       .  S
C162        C163   1.439       .  A
C163        C164   1.382       .  A
C163        O167   1.371       .  S
C164        H168   1.082       .  S
O165        H170   0.991       .  S
O167        H171   0.992       .  S
C173        C174   1.384       .  A
C173        C178   1.361       .  A
C173        H183   1.080       .  S
C174        C175   1.410       .  A
C174        C179   1.477       .  S
C175        C176   1.414       .  A
C175        O180   1.372       .  S
C176        C177   1.424       .  A
C176        H181   1.078       .  S
C177        C178   1.424       .  A
C178        O182   1.364       .  S
C179        C184   1.419       .  A
C179        C188   1.405       .  A
O180        H196   0.992       .  S
O182        H193   0.992       .  S
C184        C185   1.384       .  A
C184        O189   1.378       .  S
C185        C186   1.397       .  A
C185        H190   1.085       .  S
C186        C187   1.408       .  A
C187        C188   1.407       .  A
C187        O191   1.380       .  S
C188        H192   1.081       .  S
O189        H194   0.993       .  S
O191        H195   0.992       .  S
C197        C198   1.391       .  A
C197        C202   1.421       .  A
C197        H207   1.084       .  S
C198        C199   1.410       .  A
C198        C203   1.535       .  S
C199        C200   1.434       .  A
C199        O204   1.370       .  S
C200        C201   1.442       .  A
C200        H205   1.080       .  S
C201        C202   1.452       .  A
C202        O206   1.365       .  S
C203        C208   1.403       .  A
C203        C212   1.417       .  A
O204        H220   0.992       .  S
O206        H217   0.994       .  S
C208        C209   1.407       .  A
C208        O213   1.372       .  S
C209        C210   1.433       .  A
C209        H214   1.083       .  S
C210        C211   1.414       .  A
C211        C212   1.440       .  A
C211        O215   1.369       .  S
C212        H216   1.075       .  S
O213        H218   0.991       .  S
O215        H219   0.990       .  S
C221        C222   1.405       .  A
C221        C226   1.393       .  A
C221        H231   1.077       .  S
C222        C223   1.405       .  A
C222        C227   1.491       .  S
C223        C224   1.393       .  A
C223        O228   1.373       .  S
C224        C225   1.421       .  A
C224        H229   1.067       .  S
C225        C226   1.417       .  A
C226        O230   1.372       .  S
C227        C232   1.406       .  A
C227        C236   1.409       .  A
O228        H244   0.992       .  S
O230        H241   0.987       .  S
C232        C233   1.387       .  A
C232        O237   1.372       .  S
C233        C234   1.403       .  A
C233        H238   1.064       .  S
C234        C235   1.429       .  A
C235        C236   1.406       .  A
C235        O239   1.371       .  S
C236        H240   1.081       .  S
O237        H242   0.992       .  S
O239        H243   0.992       .  S
C245        C246   1.385       .  A
C245        C250   1.396       .  A
C245        H255   1.085       .  S
C246        C247   1.419       .  A
C246        C251   1.509       .  S
C247        C248   1.431       .  A
C247        O252   1.370       .  S
C248        C249   1.418       .  A
C248        H253   1.081       .  S
C249        C250   1.444       .  A
C250        O254   1.372       .  S
C251        C256   1.410       .  A
C251        C260   1.400       .  A
O252        H268   0.991       .  S
O254        H265   0.991       .  S
C256        C257   1.413       .  A
C256        O261   1.370       .  S
C257        C258   1.405       .  A
C257        H262   1.074       .  S
C258        C259   1.449       .  A
C259        C260   1.415       .  A
C259        O263   1.372       .  S
C260        H264   1.083       .  S
O261        H266   0.991       .  S
O263        H267   0.990       .  S
C269        C270   1.385       .  A
C269        C274   1.384       .  A
C269        H279   1.085       .  S
C270        C271   1.399   1_545  A
C270        C275   1.472       .  S
C271        C272   1.404   1_565  A
C271        O276   1.362       .  S
C272        C273   1.406       .  A
C272        H277   1.082   1_545  S
C273        C274   1.435       .  A
C274        O278   1.373       .  S
C275        C280   1.394       .  A
C275        C284   1.394       .  A
O276        H292   0.992       .  S
O278        H289   0.993       .  S
C280        C281   1.386       .  A
C280        O285   1.375       .  S
C281        C282   1.424       .  A
C281        H286   1.056       .  S
C282        C283   1.429       .  A
C283        C284   1.408       .  A
C283        O287   1.369       .  S
C284        H288   1.083       .  S
O285        H290   0.991       .  S
O287        H291   0.989   1_545  S
C293        C294   1.408       .  A
C293        C298   1.408       .  A
C293        H303   1.080       .  S
C294        C295   1.423       .  A
C294        C299   1.501       .  S
C295        C296   1.394       .  A
C295        O300   1.377       .  S
C296        C297   1.400       .  A
C296        H301   1.084       .  S
C297        C298   1.413       .  A
C298        O302   1.372       .  S
C299        C304   1.424       .  A
C299        C308   1.396       .  A
O300        H316   0.993       .  S
O302        H313   0.991       .  S
C304        C305   1.427       .  A
C304        O309   1.370       .  S
C305        C306   1.423       .  A
C305        H310   1.081       .  S
C306        C307   1.417       .  A
C307        C308   1.373       .  A
C307        O311   1.365       .  S
C308        H312   1.080       .  S
O309        H314   0.992       .  S
O311        H315   0.992       .  S
C317        C318   1.407       .  A
C317        C322   1.433       .  A
C317        H327   1.083       .  S
C318        C319   1.413       .  A
C318        C323   1.537       .  S
C319        C320   1.424       .  A
C319        O324   1.371       .  S
C320        C321   1.424       .  A
C320        H325   1.068       .  S
C321        C322   1.447       .  A
C322        O326   1.370       .  S
C323        C328   1.416       .  A
C323        C332   1.397       .  A
O324        H340   0.991       .  S
O326        H337   0.992       .  S
C328        C329   1.435       .  A
C328        O333   1.367       .  S
C329        C330   1.421       .  A
C329        H334   1.081       .  S
C330        C331   1.446       .  A
C331        C332   1.414       .  A
C331        O335   1.371       .  S
C332        H336   1.084       .  S
O333        H338   0.990       .  S
O335        H339   0.991       .  S
C341        C342   1.403       .  A
C341        C346   1.398       .  A
C341        H351   1.083       .  S
C342        C343   1.408       .  A
C342        C347   1.501       .  S
C343        C344   1.417       .  A
C343        O348   1.370       .  S
C344        C345   1.416       .  A
C344        H349   1.076       .  S
C345        C346   1.429       .  A
C346        O350   1.372       .  S
C347        C352   1.392       .  A
C347        C356   1.415       .  A
O348        H364   0.991       .  S
O350        H361   0.990       .  S
C352        C353   1.372       .  A
C352        O357   1.370       .  S
C353        C354   1.423       .  A
C353        H358   1.069       .  S
C354        C355   1.431       .  A
C355        C356   1.432       .  A
C355        O359   1.374       .  S
C356        H360   1.083       .  S
O357        H362   0.992       .  S
O359        H363   0.991       .  S
C365        C366   1.392       .  A
C365        C370   1.394       .  A
C365        H375   1.084       .  S
C366        C367   1.392       .  A
C366        C371   1.457       .  S
C367        C368   1.388       .  A
C367        O372   1.372       .  S
C368        C369   1.426       .  A
C368        H373   1.083       .  S
C369        C370   1.421       .  A
C370        O374   1.362       .  S
C371        C376   1.404       .  A
C371        C380   1.389       .  A
O372        H388   0.992       .  S
O374        H385   0.979       .  S
C376        C377   1.403       .  A
C376        O381   1.371       .  S
C377        C378   1.414       .  A
C377        H382   1.081       .  S
C378        C379   1.419       .  A
C379        C380   1.392       .  A
C379        O383   1.371       .  S
C380        H384   1.085       .  S
O381        H386   0.991       .  S
O383        H387   0.994       .  S
C389        C390   1.388       .  A
C389        C394   1.404       .  A
C389        H399   1.084       .  S
C390        C391   1.416       .  A
C390        C395   1.512       .  S
C391        C392   1.426       .  A
C391        O396   1.364       .  S
C392        C393   1.410       .  A
C392        H397   1.080       .  S
C393        C394   1.441       .  A
C394        O398   1.378       .  S
C395        C400   1.411       .  A
C395        C404   1.410       .  A
O396        H412   0.992       .  S
O398        H409   0.992       .  S
C400        C401   1.420       .  A
C400        O405   1.371       .  S
C401        C402   1.410       .  A
C401        H406   1.082       .  S
C402        C403   1.430       .  A
C403        C404   1.416       .  A
C403        O407   1.371       .  S
C404        H408   1.083       .  S
O405        H410   0.991       .  S
O407        H411   0.991       .  S
C413        C414   1.400       .  A
C413        C418   1.400       .  A
C413        H423   1.083       .  S
C414        C415   1.396       .  A
C414        C419   1.475       .  S
C415        C416   1.386       .  A
C415        O420   1.371       .  S
C416        C417   1.413       .  A
C416        H421   1.067       .  S
C417        C418   1.426       .  A
C418        O422   1.373       .  S
C419        C424   1.397       .  A
C419        C428   1.405       .  A
O420        H436   0.992       .  S
O422        H433   0.993       .  S
C424        C425   1.381       .  A
C424        O429   1.375       .  S
C425        C426   1.424       .  A
C425        H430   1.060       .  S
C426        C427   1.424       .  A
C427        C428   1.403       .  A
C427        O431   1.374       .  S
C428        H432   1.081   1_556  S
O429        H434   0.992       .  S
O431        H435   0.992   1_556  S
C437        C438   1.403       .  A
C437        C442   1.413       .  A
C437        H447   1.083       .  S
C438        C439   1.415       .  A
C438        C443   1.498       .  S
C439        C440   1.414       .  A
C439        O444   1.373       .  S
C440        C441   1.410       .  A
C440        H445   1.083       .  S
C441        C442   1.422       .  A
C442        O446   1.363       .  S
C443        C448   1.410       .  A
C443        C452   1.391       .  A
O444        H460   0.992       .  S
O446        H457   0.990       .  S
C448        C449   1.420       .  A
C448        O453   1.367       .  S
C449        C450   1.412       .  A
C449        H454   1.082       .  S
C450        C451   1.433       .  A
C451        C452   1.393       .  A
C451        O455   1.372       .  S
C452        H456   1.080       .  S
O453        H458   0.991       .  S
O455        H459   0.992       .  S
C461        C462   1.403       .  A
C461        C466   1.422       .  A
C461        H471   1.083       .  S
C462        C463   1.390       .  A
C462        C467   1.486       .  S
C463        C464   1.381       .  A
C463        O468   1.373       .  S
C464        C465   1.423       .  A
C464        H469   1.061       .  S
C465        C466   1.431       .  A
C466        O470   1.375       .  S
C467        C472   1.394       .  A
C467        C476   1.401       .  A
O468        H484   0.991       .  S
O470        H481   0.993       .  S
C472        C473   1.399       .  A
C472        O477   1.372       .  S
C473        C474   1.429       .  A
C473        H478   1.062       .  S
C474        C475   1.418       .  A
C475        C476   1.401       .  A
C475        O479   1.376       .  S
C476        H480   1.084       .  S
O477        H482   0.991       .  S
O479        H483   0.992       .  S
C485        C486   1.408       .  A
C485        C490   1.423       .  A
C485        H495   1.083       .  S
C486        C487   1.413       .  A
C486        C491   1.525       .  S
C487        C488   1.425       .  A
C487        O492   1.372       .  S
C488        C489   1.414       .  A
C488        H493   1.080       .  S
C489        C490   1.437       .  A
C490        O494   1.376       .  S
C491        C496   1.399       .  A
C491        C500   1.414       .  A
O492        H508   0.991       .  S
O494        H505   0.992       .  S
C496        C497   1.402       .  A
C496        O501   1.369       .  S
C497        C498   1.430       .  A
C497        H502   1.082       .  S
C498        C499   1.428       .  A
C499        C500   1.431       .  A
C499        O503   1.367       .  S
C500        H504   1.077       .  S
O501        H506   0.991       .  S
O503        H507   0.991       .  S
C509        C510   1.412       .  A
C509        C514   1.419       .  A
C509        H519   1.075       .  S
C510        C511   1.388       .  A
C510        C515   1.484       .  S
C511        C512   1.376       .  A
C511        O516   1.374       .  S
C512        C513   1.431       .  A
C512        H517   1.071       .  S
C513        C514   1.405       .  A
C514        O518   1.358       .  S
C515        C520   1.398       .  A
C515        C524   1.387       .  A
O516        H532   0.990       .  S
O518        H529   0.992       .  S
C520        C521   1.420       .  A
C520        O525   1.370       .  S
C521        C522   1.427       .  A
C521        H526   1.070       .  S
C522        C523   1.443       .  A
C523        C524   1.391       .  A
C523        O527   1.365       .  S
C524        H528   1.086       .  S
O525        H530   0.992       .  S
O527        H531   0.993       .  S
C533        C534   1.391       .  A
C533        C538   1.390       .  A
C533        H543   1.081       .  S
C534        C535   1.418       .  A
C534        C539   1.520       .  S
C535        C536   1.426       .  A
C535        O540   1.371       .  S
C536        C537   1.424       .  A
C536        H541   1.078       .  S
C537        C538   1.435       .  A
C538        O542   1.358       .  S
C539        C544   1.419       .  A
C539        C548   1.408       .  A
O540        H556   0.991       .  S
O542        H553   0.993       .  S
C544        C545   1.395       .  A
C544        O549   1.374       .  S
C545        C546   1.403       .  A
C545        H550   1.069       .  S
C546        C547   1.438       .  A
C547        C548   1.417       .  A
C547        O551   1.371       .  S
C548        H552   1.080       .  S
O549        H554   0.991       .  S
O551        H555   0.991       .  S
C557        C558   1.421       .  A
C557        C562   1.423       .  A
C557        H567   1.081       .  S
C558        C559   1.411       .  A
C558        C563   1.513       .  S
C559        C560   1.394       .  A
C559        O564   1.371       .  S
C560        C561   1.418       .  A
C560        H565   1.081       .  S
C561        C562   1.420       .  A
C562        O566   1.370       .  S
C563        C568   1.410       .  A
C563        C572   1.418       .  A
O564        H580   0.991       .  S
O566        H577   0.991       .  S
C568        C569   1.399       .  A
C568        O573   1.371       .  S
C569        C570   1.417       .  A
C569        H574   1.080       .  S
C570        C571   1.406       .  A
C571        C572   1.413       .  A
C571        O575   1.373       .  S
C572        H576   1.081       .  S
O573        H578   0.992       .  S
O575        H579   0.990       .  S
C581        C582   1.392       .  A
C581        C586   1.402       .  A
C581        H591   1.085       .  S
C582        C583   1.406       .  A
C582        C587   1.507       .  S
C583        C584   1.424       .  A
C583        O588   1.373   1_455  S
C584        C585   1.426       .  A
C584        H589   1.079   1_455  S
C585        C586   1.443       .  A
C586        O590   1.362       .  S
C587        C592   1.392       .  A
C587        C596   1.414   1_455  A
O588        H604   0.991   1_655  S
O590        H601   0.992   1_455  S
C592        C593   1.388       .  A
C592        O597   1.373       .  S
C593        C594   1.434       .  A
C593        H598   1.077       .  S
C594        C595   1.419       .  A
C595        C596   1.430   1_455  A
C595        O599   1.368   1_455  S
C596        H600   1.075       .  S
O597        H602   0.992       .  S
O599        H603   0.992       .  S
C605        C606   1.425       .  A
C605        C610   1.419       .  A
C605        H615   1.077       .  S
C606        C607   1.429       .  A
C606        C611   1.541       .  S
C607        C608   1.402       .  A
C607        O612   1.367       .  S
C608        C609   1.406       .  A
C608        H613   1.084       .  S
C609        C610   1.413       .  A
C610        O614   1.371       .  S
C611        C616   1.431       .  A
C611        C620   1.420       .  A
O612        H628   0.992       .  S
O614        H625   0.992       .  S
C616        C617   1.414       .  A
C616        O621   1.370       .  S
C617        C618   1.389       .  A
C617        H622   1.080       .  S
C618        C619   1.416       .  A
C619        C620   1.405       .  A
C619        O623   1.370       .  S
C620        H624   1.071       .  S
O621        H626   0.992       .  S
O623        H627   0.992       .  S
C629        C630   1.392       .  A
C629        C634   1.399       .  A
C629        H639   1.082       .  S
C630        C631   1.417       .  A
C630        C635   1.511       .  S
C631        C632   1.406       .  A
C631        O636   1.371       .  S
C632        C633   1.412       .  A
C632        H637   1.081       .  S
C633        C634   1.440       .  A
C634        O638   1.360       .  S
C635        C640   1.421       .  A
C635        C644   1.397       .  A
O636        H652   0.992       .  S
O638        H649   0.993       .  S
C640        C641   1.412       .  A
C640        O645   1.372       .  S
C641        C642   1.418       .  A
C641        H646   1.084       .  S
C642        C643   1.431       .  A
C643        C644   1.401       .  A
C643        O647   1.369       .  S
C644        H648   1.078       .  S
O645        H650   0.992       .  S
O647        H651   0.993       .  S
C653        C654   1.390       .  A
C653        C658   1.402       .  A
C653        H663   1.083       .  S
C654        C655   1.419       .  A
C654        C659   1.503       .  S
C655        C656   1.411       .  A
C655        O660   1.376       .  S
C656        C657   1.410       .  A
C656        H661   1.080       .  S
C657        C658   1.442       .  A
C658        O662   1.369       .  S
C659        C664   1.409       .  A
C659        C668   1.391       .  A
O660        H676   0.984       .  S
O662        H673   0.992       .  S
C664        C665   1.413       .  A
C664        O669   1.370       .  S
C665        C666   1.420       .  A
C665        H670   1.079       .  S
C666        C667   1.440       .  A
C667        C668   1.405       .  A
C667        O671   1.364       .  S
C668        H672   1.083       .  S
O669        H674   0.992       .  S
O671        H675   0.990       .  S
C677        C678   1.414       .  A
C677        C682   1.405       .  A
C677        H687   1.080       .  S
C678        C679   1.410   1_554  A
C678        C683   1.501       .  S
C679        C680   1.404       .  A
C679        O684   1.371       .  S
C680        C681   1.421       .  A
C680        H685   1.082       .  S
C681        C682   1.397   1_556  A
C682        O686   1.372       .  S
C683        C688   1.406   1_554  A
C683        C692   1.415       .  A
O684        H700   0.992       .  S
O686        H697   0.990       .  S
C688        C689   1.389       .  A
C688        O693   1.370       .  S
C689        C690   1.420       .  A
C689        H694   1.080       .  S
C690        C691   1.409   1_556  A
C691        C692   1.415       .  A
C691        O695   1.374       .  S
C692        H696   1.081       .  S
O693        H698   0.991       .  S
O695        H699   0.986       .  S
C701        C702   1.380       .  A
C701        C706   1.381       .  A
C701        H711   1.085       .  S
C702        C703   1.405       .  A
C702        C707   1.465       .  S
C703        C704   1.410       .  A
C703        O708   1.368       .  S
C704        C705   1.413       .  A
C704        H709   1.079       .  S
C705        C706   1.438       .  A
C706        O710   1.372       .  S
C707        C712   1.392       .  A
C707        C716   1.401       .  A
O708        H724   0.991       .  S
O710        H721   0.993       .  S
C712        C713   1.379       .  A
C712        O717   1.375       .  S
C713        C714   1.427       .  A
C713        H718   1.083       .  S
C714        C715   1.426       .  A
C715        C716   1.413       .  A
C715        O719   1.371       .  S
C716        H720   1.082       .  S
O717        H722   0.992       .  S
O719        H723   0.992       .  S
C725        C726   1.390       .  A
C725        C730   1.408       .  A
C725        H735   1.083       .  S
C726        C727   1.412       .  A
C726        C731   1.503       .  S
C727        C728   1.413       .  A
C727        O732   1.372       .  S
C728        C729   1.426       .  A
C728        H733   1.083       .  S
C729        C730   1.441       .  A
C730        O734   1.368       .  S
C731        C736   1.418       .  A
C731        C740   1.377       .  A
O732        H748   0.991       .  S
O734        H745   0.983   1_545  S
C736        C737   1.427       .  A
C736        O741   1.365   1_545  S
C737        C738   1.408       .  A
C737        H742   1.082       .  S
C738        C739   1.449       .  A
C739        C740   1.390       .  A
C739        O743   1.372       .  S
C740        H744   1.082       .  S
O741        H746   0.991   1_565  S
O743        H747   0.992       .  S
C749        C750   1.409       .  A
C749        C754   1.426       .  A
C749        H759   1.081       .  S
C750        C751   1.390       .  A
C750        C755   1.485       .  S
C751        C752   1.376       .  A
C751        O756   1.376       .  S
C752        C753   1.425       .  A
C752        H757   1.072       .  S
C753        C754   1.428       .  A
C754        O758   1.370       .  S
C755        C760   1.404       .  A
C755        C764   1.397       .  A
O756        H772   0.993       .  S
O758        H769   0.992       .  S
C760        C761   1.411       .  A
C760        O765   1.371       .  S
C761        C762   1.433       .  A
C761        H766   1.081       .  S
C762        C763   1.415       .  A
C763        C764   1.395       .  A
C763        O767   1.363       .  S
C764        H768   1.083       .  S
O765        H770   0.992       .  S
O767        H771   0.983       .  S
C773        C774   1.421       .  A
C773        C778   1.416       .  A
C773        H783   1.080       .  S
C774        C775   1.420       .  A
C774        C779   1.528       .  S
C775        C776   1.409       .  A
C775        O780   1.371       .  S
C776        C777   1.412       .  A
C776        H781   1.083       .  S
C777        C778   1.417       .  A
C778        O782   1.371       .  S
C779        C784   1.412       .  A
C779        C788   1.416       .  A
O780        H796   0.992       .  S
O782        H793   0.991       .  S
C784        C785   1.406       .  A
C784        O789   1.372       .  S
C785        C786   1.419       .  A
C785        H790   1.063       .  S
C786        C787   1.435       .  A
C787        C788   1.418       .  A
C787        O791   1.373       .  S
C788        H792   1.080       .  S
O789        H794   0.992       .  S
O791        H795   0.990       .  S
C797        C798   1.403       .  A
C797        C802   1.411       .  A
C797        H807   1.082       .  S
C798        C799   1.413       .  A
C798        C803   1.487       .  S
C799        C800   1.395       .  A
C799        O804   1.374       .  S
C800        C801   1.414       .  A
C800        H805   1.083       .  S
C801        C802   1.410       .  A
C802        O806   1.365       .  S
C803        C808   1.412       .  A
C803        C812   1.382       .  A
O804        H820   0.992       .  S
O806        H817   0.985       .  S
C808        C809   1.424       .  A
C808        O813   1.369       .  S
C809        C810   1.415       .  A
C809        H814   1.079       .  S
C810        C811   1.436       .  A
C811        C812   1.379       .  A
C811        O815   1.371       .  S
C812        H816   1.085       .  S
O813        H818   0.991       .  S
O815        H819   0.990       .  S
C821        C822   1.405       .  A
C821        C826   1.404       .  A
C821        H831   1.084       .  S
C822        C823   1.404       .  A
C822        C827   1.488       .  S
C823        C824   1.409       .  A
C823        O828   1.371       .  S
C824        C825   1.405       .  A
C824        H829   1.078       .  S
C825        C826   1.430       .  A
C826        O830   1.376       .  S
C827        C832   1.395       .  A
C827        C836   1.403       .  A
O828        H844   0.992       .  S
O830        H841   0.991       .  S
C832        C833   1.386       .  A
C832        O837   1.369       .  S
C833        C834   1.422       .  A
C833        H838   1.083       .  S
C834        C835   1.431       .  A
C835        C836   1.417       .  A
C835        O839   1.372   1_556  S
C836        H840   1.082   1_556  S
O837        H842   0.991       .  S
O839        H843   0.992       .  S
C845        C846   1.391       .  A
C845        C850   1.403       .  A
C845        H855   1.084       .  S
C846        C847   1.404       .  A
C846        C851   1.483       .  S
C847        C848   1.399       .  A
C847        O852   1.371       .  S
C848        C849   1.406       .  A
C848        H853   1.076       .  S
C849        C850   1.434       .  A
C850        O854   1.368       .  S
C851        C856   1.394       .  A
C851        C860   1.403       .  A
O852        H868   0.992       .  S
O854        H865   0.993       .  S
C856        C857   1.389       .  A
C856        O861   1.373       .  S
C857        C858   1.429       .  A
C857        H862   1.069       .  S
C858        C859   1.425       .  A
C859        C860   1.411       .  A
C859        O863   1.368       .  S
C860        H864   1.084       .  S
O861        H866   0.992       .  S
O863        H867   0.992       .  S
C869        C870   1.417       .  A
C869        C874   1.428       .  A
C869        H879   1.078       .  S
C870        C871   1.388       .  A
C870        C875   1.516       .  S
C871        C872   1.384       .  A
C871        O876   1.372       .  S
C872        C873   1.424       .  A
C872        H877   1.056       .  S
C873        C874   1.420       .  A
C874        O878   1.362       .  S
C875        C880   1.400       .  A
C875        C884   1.415       .  A
O876        H892   0.993       .  S
O878        H889   0.989       .  S
C880        C881   1.411       .  A
C880        O885   1.372       .  S
C881        C882   1.432       .  A
C881        H886   1.063       .  S
C882        C883   1.427       .  A
C883        C884   1.412       .  A
C883        O887   1.376       .  S
C884        H888   1.082       .  S
O885        H890   0.991       .  S
O887        H891   0.990       .  S
C893        C894   1.401       .  A
C893        C898   1.411       .  A
C893        H903   1.083       .  S
C894        C895   1.410       .  A
C894        C899   1.490   1_655  S
C895        C896   1.405       .  A
C895        O900   1.373   1_655  S
C896        C897   1.416   1_655  A
C896        H901   1.083   1_655  S
C897        C898   1.422   1_455  A
C898        O902   1.369       .  S
C899        C904   1.408   1_455  A
C899        C908   1.383       .  A
O900        H916   0.992       .  S
O902        H913   0.987       .  S
C904        C905   1.420   1_655  A
C904        O909   1.370       .  S
C905        C906   1.425       .  A
C905        H910   1.078   1_455  S
C906        C907   1.430       .  A
C907        C908   1.387       .  A
C907        O911   1.369       .  S
C908        H912   1.078       .  S
O909        H914   0.991       .  S
O911        H915   0.988       .  S
C917        C918   1.402       .  A
C917        C922   1.403       .  A
C917        H927   1.082       .  S
C918        C919   1.415       .  A
C918        C923   1.485       .  S
C919        C920   1.407       .  A
C919        O924   1.375       .  S
C920        C921   1.405       .  A
C920        H925   1.084       .  S
C921        C922   1.423       .  A
C922        O926   1.373       .  S
C923        C928   1.402       .  A
C923        C932   1.386       .  A
O924        H940   0.992       .  S
O926        H937   0.991       .  S
C928        C929   1.413       .  A
C928        O933   1.373       .  S
C929        C930   1.426       .  A
C929        H934   1.070       .  S
C930        C931   1.434       .  A
C931        C932   1.385       .  A
C931        O935   1.371       .  S
C932        H936   1.073       .  S
O933        H938   0.992       .  S
O935        H939   0.992       .  S
C941        C942   1.406       .  A
C941        C946   1.422       .  A
C941        H951   1.082       .  S
C942        C943   1.385       .  A
C942        C947   1.478       .  S
C943        C944   1.377       .  A
C943        O948   1.372       .  S
C944        C945   1.426       .  A
C944        H949   1.068       .  S
C945        C946   1.422       .  A
C946        O950   1.363       .  S
C947        C952   1.403       .  A
C947        C956   1.394       .  A
O948        H964   0.992       .  S
O950        H961   0.992       .  S
C952        C953   1.413       .  A
C952        O957   1.370       .  S
C953        C954   1.407       .  A
C953        H958   1.065       .  S
C954        C955   1.437       .  A
C955        C956   1.385       .  A
C955        O959   1.375       .  S
C956        H960   1.081       .  S
O957        H962   0.992       .  S
O959        H963   0.988       .  S
C965        C966   1.405       .  A
C965        C970   1.422       .  A
C965        H975   1.083       .  S
C966        C967   1.394       .  A
C966        C971   1.482       .  S
C967        C968   1.387       .  A
C967        O972   1.373       .  S
C968        C969   1.410       .  A
C968        H973   1.080       .  S
C969        C970   1.427       .  A
C970        O974   1.371       .  S
C971        C976   1.395       .  A
C971        C980   1.399       .  A
O972        H988   0.990       .  S
O974        H985   0.991       .  S
C976        C977   1.376       .  A
C976        O981   1.366       .  S
C977        C978   1.422       .  A
C977        H982   1.085       .  S
C978        C979   1.430       .  A
C979        C980   1.418       .  A
C979        O983   1.363       .  S
C980        H984   1.080       .  S
O981        H986   0.992       .  S
O983        H987   0.991       .  S
C989        C990   1.407       .  A
C989        C994   1.391       .  A
C989        H999   1.080       .  S
C990        C991   1.412       .  A
C990        C995   1.498       .  S
C991        C992   1.402       .  A
C991        O996   1.372       .  S
C992        C993   1.424       .  A
C992        H997   1.082       .  S
C993        C994   1.415       .  A
C994        O998   1.369       .  S
C995       C1000   1.402       .  A
C995       C1004   1.410       .  A
O996       H1012   0.991       .  S
O998       H1009   0.991       .  S
C1000      C1001   1.382       .  A
C1000      O1005   1.370       .  S
C1001      C1002   1.419       .  A
C1001      H1006   1.073       .  S
C1002      C1003   1.421       .  A
C1003      C1004   1.409       .  A
C1003      O1007   1.366       .  S
C1004      H1008   1.081       .  S
O1005      H1010   0.992       .  S
O1007      H1011   0.991       .  S
C1013      C1014   1.421       .  A
C1013      C1018   1.419       .  A
C1013      H1023   1.078       .  S
C1014      C1015   1.419       .  A
C1014      C1019   1.519       .  S
C1015      C1016   1.403       .  A
C1015      O1020   1.372       .  S
C1016      C1017   1.413       .  A
C1016      H1021   1.084       .  S
C1017      C1018   1.407       .  A
C1018      O1022   1.376       .  S
C1019      C1024   1.414       .  A
C1019      C1028   1.418       .  A
O1020      H1036   0.992       .  S
O1022      H1033   0.992       .  S
C1024      C1025   1.406       .  A
C1024      O1029   1.372       .  S
C1025      C1026   1.414       .  A
C1025      H1030   1.071       .  S
C1026      C1027   1.414       .  A
C1027      C1028   1.412       .  A
C1027      O1031   1.371       .  S
C1028      H1032   1.078       .  S
O1029      H1034   0.992       .  S
O1031      H1035   0.990       .  S
C1037      C1038   1.391       .  A
C1037      C1042   1.396       .  A
C1037      H1047   1.082   1_556  S
C1038      C1039   1.396       .  A
C1038      C1043   1.477       .  S
C1039      C1040   1.398       .  A
C1039      O1044   1.373       .  S
C1040      C1041   1.428       .  A
C1040      H1045   1.073       .  S
C1041      C1042   1.425       .  A
C1042      O1046   1.362   1_556  S
C1043      C1048   1.390       .  A
C1043      C1052   1.397       .  A
O1044      H1060   0.990       .  S
O1046      H1057   0.979       .  S
C1048      C1049   1.387       .  A
C1048      O1053   1.373       .  S
C1049      C1050   1.427       .  A
C1049      H1054   1.071       .  S
C1050      C1051   1.427       .  A
C1051      C1052   1.419       .  A
C1051      O1055   1.376   1_556  S
C1052      H1056   1.084   1_556  S
O1053      H1058   0.992       .  S
O1055      H1059   0.992       .  S
C1061      C1062   1.378       .  A
C1061      C1066   1.382       .  A
C1061      H1071   1.084       .  S
C1062      C1063   1.410   1_455  A
C1062      C1067   1.477       .  S
C1063      C1064   1.419   1_655  A
C1063      O1068   1.368       .  S
C1064      C1065   1.413       .  A
C1064      H1069   1.081   1_455  S
C1065      C1066   1.443       .  A
C1066      O1070   1.372       .  S
C1067      C1072   1.387       .  A
C1067      C1076   1.402   1_455  A
O1068      H1084   0.992       .  S
O1070      H1081   0.993       .  S
C1072      C1073   1.387       .  A
C1072      O1077   1.372       .  S
C1073      C1074   1.430       .  A
C1073      H1078   1.074       .  S
C1074      C1075   1.425   1_455  A
C1075      C1076   1.411       .  A
C1075      O1079   1.363       .  S
C1076      H1080   1.081       .  S
O1077      H1082   0.992       .  S
O1079      H1083   0.981       .  S
C1085      C1086   1.399       .  A
C1085      C1090   1.430       .  A
C1085      H1095   1.082       .  S
C1086      C1087   1.399       .  A
C1086      C1091   1.502       .  S
C1087      C1088   1.380       .  A
C1087      O1092   1.372       .  S
C1088      C1089   1.421       .  A
C1088      H1093   1.073       .  S
C1089      C1090   1.446       .  A
C1090      O1094   1.371       .  S
C1091      C1096   1.413       .  A
C1091      C1100   1.388       .  A
O1092      H1108   0.991       .  S
O1094      H1105   0.993       .  S
C1096      C1097   1.423       .  A
C1096      O1101   1.367       .  S
C1097      C1098   1.416       .  A
C1097      H1102   1.079       .  S
C1098      C1099   1.435       .  A
C1099      C1100   1.378       .  A
C1099      O1103   1.373       .  S
C1100      H1104   1.083       .  S
O1101      H1106   0.991       .  S
O1103      H1107   0.992       .  S
C1109      C1110   1.408       .  A
C1109      C1114   1.416       .  A
C1109      H1119   1.069       .  S
C1110      C1111   1.410       .  A
C1110      C1115   1.546       .  S
C1111      C1112   1.418       .  A
C1111      O1116   1.370       .  S
C1112      C1113   1.436       .  A
C1112      H1117   1.065       .  S
C1113      C1114   1.422       .  A
C1114      O1118   1.359       .  S
C1115      C1120   1.419       .  A
C1115      C1124   1.418       .  A
O1116      H1132   0.992       .  S
O1118      H1129   0.983       .  S
C1120      C1121   1.409       .  A
C1120      O1125   1.369       .  S
C1121      C1122   1.418       .  A
C1121      H1126   1.061       .  S
C1122      C1123   1.429       .  A
C1123      C1124   1.422       .  A
C1123      O1127   1.372       .  S
C1124      H1128   1.080       .  S
O1125      H1130   0.989       .  S
O1127      H1131   0.991       .  S
C1133      C1134   1.417       .  A
C1133      C1138   1.399       .  A
C1133      H1143   1.077       .  S
C1134      C1135   1.421       .  A
C1134      C1139   1.512       .  S
C1135      C1136   1.407       .  A
C1135      O1140   1.370       .  S
C1136      C1137   1.412   1_565  A
C1136      H1141   1.084   1_565  S
C1137      C1138   1.407   1_545  A
C1138      O1142   1.372       .  S
C1139      C1144   1.417       .  A
C1139      C1148   1.424       .  A
O1140      H1156   0.992   1_565  S
O1142      H1153   0.990       .  S
C1144      C1145   1.386       .  A
C1144      O1149   1.374   1_565  S
C1145      C1146   1.411   1_565  A
C1145      H1150   1.081   1_565  S
C1146      C1147   1.409   1_545  A
C1147      C1148   1.414       .  A
C1147      O1151   1.376       .  S
C1148      H1152   1.078       .  S
O1149      H1154   0.992   1_545  S
O1151      H1155   0.991       .  S
C1157      C1158   1.391   1_455  A
C1157      C1162   1.372       .  A
C1157      H1167   1.080       .  S
C1158      C1159   1.427       .  A
C1158      C1163   1.507       .  S
C1159      C1160   1.436       .  A
C1159      O1164   1.370       .  S
C1160      C1161   1.420       .  A
C1160      H1165   1.083       .  S
C1161      C1162   1.416   1_655  A
C1162      O1166   1.369   1_455  S
C1163      C1168   1.415       .  A
C1163      C1172   1.402       .  A
O1164      H1180   0.992       .  S
O1166      H1177   0.992       .  S
C1168      C1169   1.393       .  A
C1168      O1173   1.377       .  S
C1169      C1170   1.403       .  A
C1169      H1174   1.056       .  S
C1170      C1171   1.439       .  A
C1171      C1172   1.416       .  A
C1171      O1175   1.371       .  S
C1172      H1176   1.082       .  S
O1173      H1178   0.993       .  S
O1175      H1179   0.989       .  S
C1181      C1182   1.419       .  A
C1181      C1186   1.424       .  A
C1181      H1191   1.077       .  S
C1182      C1183   1.416       .  A
C1182      C1187   1.534       .  S
C1183      C1184   1.400       .  A
C1183      O1188   1.373       .  S
C1184      C1185   1.419       .  A
C1184      H1189   1.082       .  S
C1185      C1186   1.413       .  A
C1186      O1190   1.380       .  S
C1187      C1192   1.418       .  A
C1187      C1196   1.412       .  A
O1188      H1204   0.992       .  S
O1190      H1201   0.993   1_455  S
C1192      C1193   1.417       .  A
C1192      O1197   1.369       .  S
C1193      C1194   1.413       .  A
C1193      H1198   1.077       .  S
C1194      C1195   1.423       .  A
C1195      C1196   1.417       .  A
C1195      O1199   1.374       .  S
C1196      H1200   1.081       .  S
O1197      H1202   0.991       .  S
O1199      H1203   0.992       .  S
C1205      C1206   1.412       .  A
C1205      C1210   1.435       .  A
C1205      H1215   1.082   1_545  S
C1206      C1207   1.388       .  A
C1206      C1211   1.503       .  S
C1207      C1208   1.389       .  A
C1207      O1212   1.373       .  S
C1208      C1209   1.435       .  A
C1208      H1213   1.077       .  S
C1209      C1210   1.422       .  A
C1210      O1214   1.378   1_545  S
C1211      C1216   1.403       .  A
C1211      C1220   1.408       .  A
O1212      H1228   0.992       .  S
O1214      H1225   0.992       .  S
C1216      C1217   1.412       .  A
C1216      O1221   1.373       .  S
C1217      C1218   1.425       .  A
C1217      H1222   1.069       .  S
C1218      C1219   1.432       .  A
C1219      C1220   1.411       .  A
C1219      O1223   1.374       .  S
C1220      H1224   1.083       .  S
O1221      H1226   0.992       .  S
O1223      H1227   0.990       .  S
C1229      C1230   1.396       .  A
C1229      C1234   1.407       .  A
C1229      H1239   1.083       .  S
C1230      C1231   1.412       .  A
C1230      C1235   1.476       .  S
C1231      C1232   1.409       .  A
C1231      O1236   1.372       .  S
C1232      C1233   1.410       .  A
C1232      H1237   1.083       .  S
C1233      C1234   1.428       .  A
C1234      O1238   1.371       .  S
C1235      C1240   1.403       .  A
C1235      C1244   1.385       .  A
O1236      H1252   0.992       .  S
O1238      H1249   0.992       .  S
C1240      C1241   1.409       .  A
C1240      O1245   1.364       .  S
C1241      C1242   1.406       .  A
C1241      H1246   1.081       .  S
C1242      C1243   1.440       .  A
C1243      C1244   1.389       .  A
C1243      O1247   1.375       .  S
C1244      H1248   1.085       .  S
O1245      H1250   0.992       .  S
O1247      H1251   0.991       .  S
C1253      C1254   1.392       .  A
C1253      C1258   1.391       .  A
C1253      H1263   1.085       .  S
C1254      C1255   1.395       .  A
C1254      C1259   1.497       .  S
C1255      C1256   1.418       .  A
C1255      O1260   1.369       .  S
C1256      C1257   1.411       .  A
C1256      H1261   1.079       .  S
C1257      C1258   1.441       .  A
C1258      O1262   1.375       .  S
C1259      C1264   1.397       .  A
C1259      C1268   1.412       .  A
O1260      H1276   0.992       .  S
O1262      H1273   0.992       .  S
C1264      C1265   1.368       .  A
C1264      O1269   1.374       .  S
C1265      C1266   1.418       .  A
C1265      H1270   1.074       .  S
C1266      C1267   1.427       .  A
C1267      C1268   1.429       .  A
C1267      O1271   1.368       .  S
C1268      H1272   1.082       .  S
O1269      H1274   0.991       .  S
O1271      H1275   0.988       .  S
C1277      C1278   1.405       .  A
C1277      C1282   1.406       .  A
C1277      H1287   1.083       .  S
C1278      C1279   1.399       .  A
C1278      C1283   1.480       .  S
C1279      C1280   1.394       .  A
C1279      O1284   1.373       .  S
C1280      C1281   1.422       .  A
C1280      H1285   1.063       .  S
C1281      C1282   1.427       .  A
C1282      O1286   1.372       .  S
C1283      C1288   1.392       .  A
C1283      C1292   1.401       .  A
O1284      H1300   0.992       .  S
O1286      H1297   0.991       .  S
C1288      C1289   1.385       .  A
C1288      O1293   1.370       .  S
C1289      C1290   1.421       .  A
C1289      H1294   1.071       .  S
C1290      C1291   1.424       .  A
C1291      C1292   1.414       .  A
C1291      O1295   1.375       .  S
C1292      H1296   1.083       .  S
O1293      H1298   0.992       .  S
O1295      H1299   0.993       .  S
