geometry optimzed in LAMMPS
_audit_creation_date              2020-11-30 
_audit_creation_method            'lammps2cif' 
_symmetry_space_group_name_H-M    'P1' 
_symmetry_Int_Tables_number       1 
_symmetry_cell_setting            triclinic 
loop_ 
_symmetry_equiv_pos_as_xyz 
  x,y,z 
_cell_length_a                    26.17711939 
_cell_length_b                    26.09747902280366 
_cell_length_c                    25.865704759799737 
_cell_angle_alpha                 90.18443830854295 
_cell_angle_beta                  90.12388862652251 
_cell_angle_gamma                 90.80834929780397 
loop_ 
_atom_site_label 
_atom_site_type_symbol 
_atom_site_fract_x 
_atom_site_fract_y 
_atom_site_fract_z 
_atom_site_charge 
C1          C  0.32444186  0.34021453  0.17574854     0.01700
C2          C  0.32742291  0.22907389  0.26547774     0.01700
C3          C  0.22162999  0.24061658  0.16869200     0.01700
C4          C  0.22866833  0.32990702  0.28194815     0.01700
C5          C  0.32872324  0.24732957  0.65623020     0.01700
C6          C  0.23727610  0.23432141  0.76666733     0.01700
C7          C  0.22596031  0.34381053  0.67414147     0.01700
C8          C  0.33578544  0.33913801  0.76651255     0.01700
N9          N  0.45936844  0.47466431  0.88711966    -0.02000
N10         N  0.44787732  0.43867355  0.85279140    -0.54100
N11         N  0.41549708  0.58852008  0.92491034    -0.01600
N12         N  0.37806796  0.62147967  0.91945324    -0.56200
N13         N  0.44703252  0.59117284  0.88536188    -0.01200
N14         N  0.43143999  0.62586961  0.85203798    -0.54100
N15         N  0.42774873  0.47185116  0.92655652    -0.00900
N16         N  0.39493343  0.43351579  0.92041424    -0.56600
C17         C  0.40797836  0.41306711  0.87448327     1.01800
C18         C  0.38852002  0.64448371  0.87392351     1.00000
N19         N  0.46285827  0.59318361  0.08028551    -0.02100
N20         N  0.45316238  0.62622288  0.11741072    -0.54700
N21         N  0.43724693  0.47422113  0.04704007    -0.00300
N22         N  0.40549552  0.43761492  0.06206446    -0.55900
N23         N  0.47657775  0.47748054  0.07860004    -0.02200
N24         N  0.47264943  0.44306314  0.11567599    -0.54900
N25         N  0.42476450  0.59058308  0.04717254     0.00100
N26         N  0.38805286  0.62207579  0.06117173    -0.56000
Mn27       Mn  0.42498301  0.53137646  0.98628257     1.18400
C28         C  0.40677417  0.64420117  0.10490424     1.02300
C29         C  0.42833067  0.41836581  0.10459411     1.03000
N30         N  0.56729824  0.60578547  0.87302728    -0.02200
N31         N  0.57507806  0.63414963  0.83148023    -0.58500
N32         N  0.61918856  0.49819078  0.90979376    -0.01000
N33         N  0.65832759  0.46902979  0.89869789    -0.59200
N34         N  0.58146028  0.48987795  0.87687292    -0.01700
N35         N  0.59463764  0.45473600  0.84239548    -0.58800
N36         N  0.60433589  0.61353432  0.90692447    -0.00600
N37         N  0.63785165  0.64727254  0.88879813    -0.59500
Mn38       Mn  0.51347984  0.54002931  0.87912759     1.10700
C39         C  0.61877399  0.66028957  0.84201619     1.03500
C40         C  0.64261729  0.44188354  0.85705128     1.03600
N41         N  0.59560462  0.49337029  0.06753461    -0.01700
N42         N  0.61073272  0.45617242  0.09826251    -0.57100
N43         N  0.61217356  0.61651596  0.03223001    -0.01000
N44         N  0.64216754  0.65647283  0.04280286    -0.53800
N45         N  0.57891913  0.60987492  0.06974982    -0.02300
N46         N  0.58433236  0.64547928  0.10552631    -0.56600
N47         N  0.62845876  0.50029511  0.02976582    -0.01300
N48         N  0.66671799  0.46825086  0.03394869    -0.53800
Mn49       Mn  0.52887143  0.54307106  0.07505662     1.20200
Mn50       Mn  0.61723660  0.55808764  0.96977332     1.10100
Cl51       Cl  0.52116479  0.54326833  0.97737191    -0.81800
C52         C  0.65496165  0.44077935  0.07646063     1.00500
C53         C  0.62357210  0.67438597  0.08834640     1.00300
C54         C  0.31429925  0.74344144  0.16130006     0.01700
C55         C  0.21902450  0.84781538  0.17580172     0.01700
C56         C  0.23414591  0.75008929  0.28057072     0.01700
C57         C  0.33730502  0.84811319  0.25731720     0.01700
N58         N  0.47630808  0.09706286  0.57306966    -0.02000
N59         N  0.46858634  0.12835056  0.61238362    -0.54100
N60         N  0.42634109  0.98939729  0.52804504    -0.01600
N61         N  0.38469055  0.96207542  0.53796605    -0.56200
N62         N  0.46149084  0.98116283  0.56334789    -0.01200
N63         N  0.44449256  0.94799305  0.59793826    -0.54100
N64         N  0.44234517  0.10491454  0.53645846    -0.00900
N65         N  0.41083258  0.14159042  0.55013039    -0.56600
C66         C  0.42801596  0.15614874  0.59734407     1.00200
C67         C  0.39674634  0.93611790  0.58128850     1.00000
N68         N  0.46430051  0.99461964  0.37045914    -0.02100
N69         N  0.44876022  0.96240364  0.33364990    -0.54700
N70         N  0.44224915  0.11315230  0.41393452    -0.00300
N71         N  0.40856108  0.14896524  0.40371660    -0.55900
N72         N  0.47725396  0.11157330  0.37752892    -0.02200
N73         N  0.46784256  0.14629328  0.34169509    -0.54900
N74         N  0.42927838  0.99743934  0.40682647     0.00100
N75         N  0.38965940  0.96779504  0.39576832    -0.56000
Mn76       Mn  0.43449988  0.05153990  0.47128451     1.18400
C77         C  0.40220573  0.94585842  0.35048831     1.02300
C78         C  0.42537732  0.16975326  0.35904250     1.03000
N79         N  0.58252039  0.96726985  0.56465473    -0.02200
N80         N  0.58877356  0.93106528  0.59949594    -0.58500
N81         N  0.63226191  0.08465548  0.54206801    -0.01000
N82         N  0.66919859  0.11643064  0.55814860    -0.59200
N83         N  0.59522561  0.08313427  0.57635847    -0.01700
N84         N  0.60602889  0.11295478  0.61615711    -0.58800
N85         N  0.62043759  0.96725176  0.53117630    -0.00600
N86         N  0.65361321  0.93122989  0.54340518    -0.59500
Mn87       Mn  0.52890943  0.03170329  0.56987271     1.10700
C88         C  0.63290659  0.90861091  0.58585918     1.03500
C89         C  0.65182359  0.13388354  0.60448753     1.03600
N90         N  0.59911472  0.10063950  0.38162865    -0.01700
N91         N  0.61370780  0.13784071  0.35015001    -0.57100
N92         N  0.62227874  0.97812027  0.40612481    -0.01000
N93         N  0.65564810  0.94385123  0.38995923    -0.53800
N94         N  0.58692381  0.98482408  0.37041229    -0.02300
N95         N  0.59582741  0.95582398  0.32961644    -0.56600
N96         N  0.63322365  0.09495744  0.41874327    -0.01300
N97         N  0.67110992  0.12853301  0.41352430    -0.53800
Mn98       Mn  0.53208047  0.04784104  0.37372532     1.20200
Mn99       Mn  0.62851635  0.03099057  0.47433270     1.10100
Cl100      Cl  0.53112434  0.04031369  0.47216663    -0.81800
C101        C  0.65846895  0.15505482  0.37073531     1.00500
C102        C  0.63823883  0.92996422  0.34237936     1.00300
C103        C  0.70504954  0.34428633  0.76387546     0.01700
C104        C  0.82133700  0.35770244  0.68153575     0.01700
C105        C  0.73528379  0.24209111  0.66760268     0.01700
C106        C  0.81668135  0.25889337  0.78644919     0.01700
C107        C  0.32651530  0.73263786  0.77176971     0.01700
C108        C  0.33635789  0.84111266  0.67856974     0.01700
C109        C  0.23043711  0.74453438  0.66515138     0.01700
C110        C  0.23118292  0.83798566  0.77555550     0.01700
C111        C  0.73246648  0.83523677  0.27801197     0.01700
C112        C  0.83190610  0.73474878  0.26116698     0.01700
C113        C  0.72831283  0.74892199  0.16254633     0.01700
C114        C  0.83072316  0.84843193  0.17428239     0.01700
C115        C  0.72399015  0.74183285  0.77469975     0.01700
C116        C  0.82555348  0.72004310  0.67660828     0.01700
C117        C  0.73517246  0.82895141  0.66024655     0.01700
C118        C  0.83452247  0.83368759  0.76452222     0.01700
N119        N  0.07909527  0.09226868  0.06820180    -0.02000
N120        N  0.11452298  0.09625905  0.10432804    -0.54100
N121        N  0.96231635  0.13098485  0.03339344    -0.01600
N122        N  0.92682857  0.16383718  0.04736292    -0.56200
N123        N  0.96185318  0.09107044  0.06448547    -0.01200
N124        N  0.92574887  0.09583709  0.09975457    -0.54100
N125        N  0.07961032  0.13288108  0.03809683    -0.00900
N126        N  0.11540792  0.16570434  0.05372364    -0.56600
C127        C  0.13688424  0.14205800  0.09486202     1.00200
C128        C  0.90405135  0.14119746  0.08855172     1.00000
N129        N  0.97052810  0.11322626  0.87057979    -0.02100
N130        N  0.94036217  0.12627361  0.83218964    -0.54700
N131        N  0.08418687  0.14812319  0.91568749    -0.00300
N132        N  0.11736110  0.18628741  0.90958012    -0.55900
N133        N  0.08721875  0.11561802  0.87675412    -0.02200
N134        N  0.12263827  0.13098829  0.84364931    -0.54900
N135        N  0.96669043  0.14580842  0.90933397     0.00100
N136        N  0.93331077  0.18196072  0.89748435    -0.56000
Mn137      Mn  0.02292890  0.14102539  0.97450127     1.18400
C138        C  0.91685502  0.16860556  0.84922701     1.02300
C139        C  0.14150996  0.17483081  0.86488588     1.03000
N140        N  0.96433737  0.97070669  0.05129664    -0.02200
N141        N  0.93312570  0.95370574  0.08744199    -0.58500
N142        N  0.08232215  0.94074902  0.01564324    -0.01000
N143        N  0.11563473  0.90408278  0.02360737    -0.59200
N144        N  0.08029852  0.97148074  0.05604767    -0.01700
N145        N  0.11205016  0.95592387  0.09252582    -0.58800
N146        N  0.96616310  0.93820070  0.01234636    -0.00600
N147        N  0.93628360  0.89802901  0.02167168    -0.59500
Mn148      Mn  0.02133263  0.03161864  0.06089835     1.10700
C149        C  0.91557589  0.90866779  0.06832959     1.03500
C150        C  0.13405944  0.91404776  0.07149588     1.03600
N151        N  0.08723782  0.99360520  0.86146569    -0.01700
N152        N  0.11958918  0.98547188  0.82321325    -0.57100
N153        N  0.96953315  0.95362647  0.88961853    -0.01000
N154        N  0.93544885  0.91940732  0.87348768    -0.53800
N155        N  0.97055868  0.99335160  0.85836454    -0.02300
N156        N  0.93686290  0.98718605  0.82068981    -0.56600
N157        N  0.08629683  0.95416297  0.89309925    -0.01300
N158        N  0.11839718  0.91877263  0.87717208    -0.53800
Mn159      Mn  0.02921259  0.05407863  0.86612335     1.20200
Mn160      Mn  0.02606310  0.94578915  0.95242524     1.10100
Cl161      Cl  0.02491972  0.04317586  0.96349642    -0.81800
C162        C  0.13925152  0.93901083  0.83379827     1.00500
C163        C  0.91522408  0.94099792  0.83067607     1.00300
C164        C  0.72534804  0.23696617  0.26471662     0.01700
C165        C  0.81767734  0.24292606  0.15454929     0.01700
C166        C  0.71118793  0.33604132  0.16245923     0.01700
C167        C  0.81937581  0.34581390  0.25660871     0.01700
N168        N  0.09242618  0.63054301  0.40487554    -0.02000
N169        N  0.12732284  0.66514464  0.39105134    -0.54100
N170        N  0.96880290  0.60520439  0.37469814    -0.01600
N171        N  0.93499951  0.62178682  0.34069022    -0.56200
N172        N  0.97639170  0.63989756  0.41119431    -0.01200
N173        N  0.94756862  0.68013804  0.40309596    -0.54100
N174        N  0.08468981  0.59720916  0.36713223    -0.00900
N175        N  0.11429668  0.60835017  0.32738395    -0.56600
C176        C  0.14105413  0.65031636  0.34280056     1.00200
C177        C  0.92179130  0.66839390  0.35934234     1.00000
N178        N  0.96114211  0.44455040  0.40676350    -0.02100
N179        N  0.92549328  0.40910598  0.40011328    -0.54700
N180        N  0.07625646  0.47726278  0.36405100    -0.00300
N181        N  0.10857933  0.46816989  0.32626157    -0.55900
N182        N  0.07840316  0.44117728  0.39939305    -0.02200
N183        N  0.11251889  0.40650937  0.38601089    -0.54900
N184        N  0.95920547  0.47952548  0.37032194     0.00100
N185        N  0.92241410  0.46711635  0.33680776    -0.56000
Mn186      Mn  0.02137430  0.53982399  0.36784974     1.18400
C187        C  0.90145544  0.42327447  0.35666687     1.02300
C188        C  0.13124962  0.42433445  0.34044996     1.03000
N189        N  0.98101529  0.63658716  0.53186041    -0.02200
N190        N  0.95065343  0.67510520  0.54197252    -0.58500
N191        N  0.09274090  0.59003765  0.56582008    -0.01000
N192        N  0.12651349  0.59699079  0.60318183    -0.59200
N193        N  0.09666986  0.62684097  0.53118390    -0.01700
N194        N  0.13263314  0.66029463  0.54535165    -0.58800
N195        N  0.97587911  0.60029941  0.56681929    -0.00600
N196        N  0.94141929  0.61382618  0.60165898    -0.59500
Mn197      Mn  0.03751161  0.63432608  0.46982000     1.10700
C198        C  0.92583889  0.66046453  0.58509754     1.03500
C199        C  0.15121438  0.64070141  0.59002505     1.03600
N200        N  0.08177931  0.43714073  0.52302115    -0.01700
N201        N  0.11550023  0.40063040  0.52938077    -0.57100
N202        N  0.96604282  0.47688038  0.56317537    -0.01000
N203        N  0.92972606  0.46679967  0.59741427    -0.53800
N204        N  0.96455593  0.44285236  0.52553558    -0.02300
N205        N  0.92673309  0.40980278  0.53260421    -0.56600
N206        N  0.08321830  0.46945516  0.56217432    -0.01300
N207        N  0.11808288  0.45526576  0.59625005    -0.53800
Mn208      Mn  0.02207480  0.44058510  0.46370902     1.20200
Mn209      Mn  0.02904307  0.53413645  0.56601425     1.10100
Cl210      Cl  0.02759939  0.53734137  0.46682311    -0.81800
C211        C  0.13796380  0.41235872  0.57497619     1.00500
C212        C  0.90532907  0.42501947  0.57735496     1.00300
C213        C  0.85465910  0.38540414  0.28191683    -0.12300
C214        C  0.86145691  0.38994415  0.33311573    -0.27400
H215        H  0.87661957  0.41044098  0.25650999     0.16700
H216        H  0.84132110  0.36390140  0.35887638     0.17300
C217        C  0.74607792  0.36799248  0.19410644    -0.09100
C218        C  0.78075134  0.37133120  0.22487515    -0.10700
C219        C  0.77874985  0.27332651  0.12707075    -0.09100
C220        C  0.74399554  0.30365417  0.12942006    -0.10700
C221        C  0.84671900  0.28018418  0.18667736    -0.09100
C222        C  0.84745002  0.31308314  0.21993502    -0.10700
C223        C  0.69210636  0.26893291  0.23256052    -0.09100
C224        C  0.68653120  0.30076472  0.19927347    -0.10700
C225        C  0.79011079  0.30939067  0.29045267    -0.09100
C226        C  0.75945010  0.27371333  0.29337803    -0.10700
C227        C  0.75872846  0.20982611  0.22784338    -0.09100
C228        C  0.78860923  0.21107218  0.19201507    -0.10700
C229        C  0.85280691  0.21495569  0.11763876    -0.12300
C230        C  0.86447246  0.16493600  0.12135195    -0.27400
H231        H  0.87204543  0.23812901  0.08854203     0.16700
H232        H  0.84747537  0.14146511  0.15148182     0.17300
C233        C  0.87093214  0.86412490  0.79831093    -0.12300
C234        C  0.87856298  0.91505071  0.79567634    -0.27400
H235        H  0.89201043  0.84242210  0.82695998     0.16700
H236        H  0.85945834  0.93765677  0.76647465     0.17300
C237        C  0.77196738  0.85967690  0.69166726    -0.09100
C238        C  0.80427483  0.86192512  0.72549993    -0.10700
C239        C  0.76576268  0.78795965  0.63623451    -0.09100
C240        C  0.79486232  0.75246668  0.64156787    -0.10700
C241        C  0.85751642  0.75615218  0.70725684    -0.09100
C242        C  0.86088067  0.79316136  0.73551234    -0.10700
C243        C  0.85759622  0.68070442  0.64881793    -0.12300
C244        C  0.89131156  0.69538337  0.61253181    -0.27400
H245        H  0.85376282  0.64040523  0.65883730     0.16700
H246        H  0.89343359  0.73558864  0.60169675     0.17300
C247        C  0.69785359  0.77390722  0.73567920    -0.09100
C248        C  0.70185284  0.80214872  0.69849630    -0.10700
C249        C  0.75495068  0.70464847  0.74520984    -0.09100
C250        C  0.78837528  0.69749602  0.71352090    -0.10700
C251        C  0.76135779  0.77651308  0.79978087    -0.09100
C252        C  0.79678685  0.80646124  0.79663966    -0.10700
C253        C  0.88507327  0.87191758  0.09862079    -0.12300
C254        C  0.86234618  0.88571842  0.14311847    -0.27400
H255        H  0.88122513  0.83286476  0.08429382     0.16700
H256        H  0.86481229  0.92537959  0.15603869     0.17300
C257        C  0.76124844  0.78721255  0.13750503    -0.09100
C258        C  0.79440307  0.81944740  0.14162830    -0.10700
C259        C  0.79674006  0.71076116  0.22331588    -0.09100
C260        C  0.76310612  0.71557170  0.19158517    -0.10700
C261        C  0.86122699  0.80992846  0.20249548    -0.09100
C262        C  0.86190016  0.77314197  0.23128999    -0.10700
C263        C  0.86407697  0.69524961  0.28848430    -0.12300
C264        C  0.88962243  0.70597173  0.33238632    -0.27400
H265        H  0.86533518  0.65662652  0.27268163     0.16700
H266        H  0.88728034  0.74408110  0.34914846     0.17300
C267        C  0.70082405  0.80570207  0.24008566    -0.09100
C268        C  0.69913078  0.77756013  0.20242006    -0.10700
C269        C  0.76645245  0.86904302  0.24712629    -0.09100
C270        C  0.79878453  0.87352613  0.21381446    -0.10700
C271        C  0.76668806  0.79723434  0.30165523    -0.09100
C272        C  0.79867091  0.76448145  0.29615625    -0.10700
C273        C  0.19823859  0.86872228  0.81224669    -0.12300
C274        C  0.17301779  0.91097955  0.79786974    -0.27400
H275        H  0.19538668  0.85613621  0.85219998     0.16700
H276        H  0.17720327  0.92535901  0.75872379     0.17300
C277        C  0.20136031  0.77789846  0.70074180    -0.09100
C278        C  0.20140805  0.80825551  0.73655566    -0.10700
C279        C  0.19615849  0.71716095  0.62604906    -0.12300
C280        C  0.18885477  0.66596081  0.62465399    -0.27400
H281        H  0.17495268  0.74084881  0.59923785     0.16700
H282        H  0.20733412  0.64180306  0.65295892     0.17300
C283        C  0.30249211  0.80997523  0.64456819    -0.09100
C284        C  0.26801941  0.77879831  0.63985092    -0.10700
C285        C  0.26860839  0.86908612  0.74559166    -0.09100
C286        C  0.30241381  0.87025206  0.71342599    -0.10700
C287        C  0.29266193  0.70747966  0.73333531    -0.09100
C288        C  0.26129348  0.71123330  0.69905014    -0.10700
C289        C  0.26179547  0.79957740  0.80363608    -0.09100
C290        C  0.29268909  0.76528245  0.80340438    -0.10700
C291        C  0.35882909  0.76873466  0.74226959    -0.09100
C292        C  0.36218246  0.80393902  0.71210442    -0.10700
C293        C  0.84816692  0.23157553  0.82736858    -0.12300
C294        C  0.88560131  0.19963445  0.81352940    -0.27400
H295        H  0.83941242  0.23682561  0.86809903     0.16700
H296        H  0.89197071  0.19316066  0.77251993     0.17300
C297        C  0.76620220  0.21834184  0.70912700    -0.09100
C298        C  0.79256760  0.22393113  0.74762650    -0.10700
C299        C  0.79721041  0.31780688  0.64825026    -0.09100
C300        C  0.76961580  0.28042369  0.64351180    -0.10700
C301        C  0.84843759  0.32891027  0.72227803    -0.09100
C302        C  0.84691474  0.29680629  0.75622172    -0.10700
C303        C  0.86495340  0.39444158  0.60281259    -0.12300
C304        C  0.85622798  0.39583570  0.65408321    -0.27400
H305        H  0.84559902  0.36609826  0.57872597     0.16700
H306        H  0.87660729  0.42397609  0.67770826     0.17300
C307        C  0.68551801  0.30592543  0.72588911    -0.09100
C308        C  0.69572001  0.27264023  0.69457197    -0.10700
C309        C  0.73737298  0.31516561  0.80028443    -0.09100
C310        C  0.77375548  0.28799201  0.80832501    -0.10700
C311        C  0.74068711  0.37776975  0.73462419    -0.09100
C312        C  0.77848189  0.38275618  0.70800739    -0.10700
C313        C  0.69253789  0.19369989  0.34641880    -0.12300
C314        C  0.69243982  0.19957563  0.29488575    -0.27400
H315        H  0.71961852  0.21485797  0.37041294     0.16700
H316        H  0.66675256  0.17538698  0.27200488     0.17300
C317        C  0.65761750  0.86993510  0.61922056    -0.12300
C318        C  0.70841404  0.86195970  0.62007280    -0.27400
H319        H  0.63332000  0.85140402  0.64771973     0.16700
H320        H  0.73244700  0.88218324  0.59238024     0.17300
C321        C  0.70226426  0.86463491  0.31807849    -0.12300
C322        C  0.66583039  0.89785093  0.30465153    -0.27400
H323        H  0.71089133  0.85915945  0.35882906     0.16700
H324        H  0.65579056  0.90184262  0.26407317     0.17300
C325        C  0.37406948  0.87408222  0.64920972    -0.12300
C326        C  0.35965545  0.90454882  0.61024189    -0.27400
H327        H  0.41442338  0.87160345  0.65889264     0.16700
H328        H  0.31971145  0.90581108  0.59888753     0.17300
C329        C  0.67895666  0.16824443  0.64147359    -0.12300
C330        C  0.71380652  0.20401026  0.62814684    -0.27400
H331        H  0.66625235  0.16688239  0.68141664     0.16700
H332        H  0.72523584  0.20719012  0.58788216     0.17300
C333        C  0.36545529  0.91292120  0.32211771    -0.12300
C334        C  0.37774173  0.88173230  0.28291619    -0.27400
H335        H  0.32617603  0.91308784  0.33561783     0.16700
H336        H  0.41722259  0.87970619  0.27023362     0.17300
C337        C  0.30828162  0.81545495  0.29430927    -0.09100
C338        C  0.27445491  0.78415692  0.30254661    -0.10700
C339        C  0.20539601  0.71862674  0.32074280    -0.12300
C340        C  0.17271761  0.68079443  0.30652287    -0.27400
H341        H  0.21147374  0.72672551  0.36158446     0.16700
H342        H  0.16854464  0.67170167  0.26566889     0.17300
C343        C  0.19506328  0.81603309  0.21676045    -0.09100
C344        C  0.20028006  0.78418474  0.25053993    -0.10700
C345        C  0.26017328  0.87736774  0.20216773    -0.09100
C346        C  0.29845092  0.87761424  0.22879097    -0.10700
C347        C  0.17103107  0.88041945  0.09762319    -0.12300
C348        C  0.18130047  0.88272376  0.14876240    -0.27400
H349        H  0.18901500  0.85173942  0.07359978     0.16700
H350        H  0.16183832  0.91086230  0.17238299     0.17300
C351        C  0.35086412  0.77878491  0.18741546    -0.09100
C352        C  0.35871268  0.81252982  0.21884104    -0.10700
C353        C  0.28677666  0.71621532  0.20311513    -0.09100
C354        C  0.26089645  0.71836845  0.24185750    -0.10700
C355        C  0.27617744  0.77673535  0.13677061    -0.09100
C356        C  0.24559766  0.81082181  0.14192497    -0.10700
C357        C  0.68928170  0.40262545  0.09852113    -0.12300
C358        C  0.67350372  0.36834026  0.13370570    -0.27400
H359        H  0.72914663  0.40392727  0.08694064     0.16700
H360        H  0.63327296  0.36590965  0.14396773     0.17300
C361        C  0.64762500  0.68943628  0.80249056    -0.12300
C362        C  0.68961191  0.71703642  0.81465852    -0.27400
H363        H  0.63539064  0.68648032  0.76242661     0.16700
H364        H  0.70018608  0.72099649  0.85520841     0.17300
C365        C  0.64825084  0.71312671  0.12162629    -0.12300
C366        C  0.69908895  0.71853467  0.12238917    -0.27400
H367        H  0.62512208  0.73139597  0.15096874     0.16700
H368        H  0.72154899  0.69759340  0.09420112     0.17300
C369        C  0.35558926  0.68337236  0.85028939    -0.12300
C370        C  0.35901205  0.69419830  0.79968191    -0.27400
H371        H  0.32709067  0.70155130  0.87430994     0.16700
H372        H  0.38618516  0.67331777  0.77617371     0.17300
C373        C  0.67777901  0.40832486  0.82870576    -0.12300
C374        C  0.66425500  0.37494666  0.79117038    -0.27400
H375        H  0.71781185  0.41133374  0.83978622     0.16700
H376        H  0.62433406  0.37007865  0.78033854     0.17300
C377        C  0.37900763  0.67889764  0.13921522    -0.12300
C378        C  0.33967356  0.70748192  0.12380138    -0.27400
H379        H  0.39288784  0.68251491  0.17869754     0.16700
H380        H  0.32684682  0.70576850  0.08382437     0.17300
C381        C  0.37273613  0.37292696  0.79630979    -0.12300
C382        C  0.37614664  0.37416515  0.84807242    -0.27400
H383        H  0.39606058  0.39952342  0.77384820     0.16700
H384        H  0.35123643  0.35024793  0.87161718     0.17300
C385        C  0.26262383  0.37166730  0.70781930    -0.09100
C386        C  0.29804968  0.36985374  0.73803029    -0.10700
C387        C  0.18789114  0.37965083  0.64927614    -0.12300
C388        C  0.17763192  0.38000556  0.59826769    -0.27400
H389        H  0.16653312  0.40470561  0.67470914     0.16700
H390        H  0.19638380  0.35324323  0.57262451     0.17300
C391        C  0.30553841  0.30090893  0.79660695    -0.09100
C392        C  0.27358236  0.26664273  0.79700224    -0.10700
C393        C  0.20064259  0.30587017  0.70820729    -0.09100
C394        C  0.20450606  0.27043577  0.73817679    -0.10700
C395        C  0.20633458  0.19615169  0.79823878    -0.12300
C396        C  0.17745421  0.21047450  0.83867232    -0.27400
H397        H  0.20610154  0.15610208  0.78648639     0.16700
H398        H  0.17887323  0.25005707  0.85176823     0.17300
C399        C  0.36026213  0.28031718  0.69040351    -0.09100
C400        C  0.36260673  0.30961846  0.72663869    -0.10700
C401        C  0.29114873  0.28184655  0.63218946    -0.09100
C402        C  0.25787025  0.31325368  0.63831482    -0.10700
C403        C  0.29863214  0.21355902  0.69095725    -0.09100
C404        C  0.26878561  0.20934565  0.72660879    -0.10700
C405        C  0.40036359  0.19015172  0.63268015    -0.12300
C406        C  0.36002578  0.21783803  0.61759288    -0.27400
H407        H  0.41209088  0.19066846  0.67297886     0.16700
H408        H  0.34915772  0.21857666  0.57702997     0.17300
C409        C  0.19655807  0.35869691  0.32074624    -0.12300
C410        C  0.16636896  0.39709162  0.30570642    -0.27400
H411        H  0.19741721  0.34757138  0.36119768     0.16700
H412        H  0.16724998  0.40923427  0.26556608     0.17300
C413        C  0.19708965  0.30007823  0.24480641    -0.09100
C414        C  0.19482883  0.27119582  0.20805544    -0.10700
C415        C  0.18454484  0.21514107  0.13162336    -0.12300
C416        C  0.17671136  0.16434113  0.12859527    -0.27400
H417        H  0.16148565  0.24016425  0.10776022     0.16700
H418        H  0.19695797  0.13864798  0.15413495     0.17300
C419        C  0.29519031  0.25971049  0.30060199    -0.09100
C420        C  0.26303089  0.29233060  0.30612856    -0.10700
C421        C  0.29109850  0.20342714  0.22930452    -0.09100
C422        C  0.25661364  0.20692710  0.19799523    -0.10700
C423        C  0.39609905  0.20733051  0.32918104    -0.12300
C424        C  0.36135123  0.19189185  0.29374953    -0.27400
H425        H  0.40061697  0.24772519  0.33861507     0.16700
H426        H  0.35671328  0.15110863  0.28583123     0.17300
C427        C  0.35635614  0.26647655  0.23375017    -0.09100
C428        C  0.35540761  0.30268297  0.20452889    -0.10700
C429        C  0.26226684  0.36316530  0.24996807    -0.09100
C430        C  0.29307409  0.36632012  0.21506804    -0.10700
C431        C  0.28853355  0.30946673  0.14425192    -0.09100
C432        C  0.25518552  0.27712410  0.14148217    -0.10700
C433        C  0.35308430  0.37743507  0.14197805    -0.12300
C434        C  0.40419276  0.38096144  0.13921893    -0.27400
H435        H  0.33008554  0.40289056  0.11849327     0.16700
H436        H  0.42841360  0.35856983  0.16437067     0.17300
loop_ 
_geom_bond_atom_site_label_1 
_geom_bond_atom_site_label_2 
_geom_bond_distance 
_geom_bond_site_symmetry_2 
_ccdc_geom_bond_type 
C1          C428   1.482       .  S
C1          C430   1.479       .  S
C1          C431   1.470       .  S
C1          C433   1.502       .  S
C2          C419   1.481       .  S
C2          C421   1.484       .  S
C2          C427   1.479       .  S
C2          C424   1.514       .  S
C3          C414   1.476       .  S
C3          C422   1.487       .  S
C3          C432   1.469       .  S
C3          C415   1.509       .  S
C4          C413   1.478       .  S
C4          C420   1.479       .  S
C4          C429   1.482       .  S
C4          C409   1.515       .  S
C5          C399   1.475       .  S
C5          C401   1.480       .  S
C5          C403   1.481       .  S
C5          C406   1.510       .  S
C6          C392   1.483       .  S
C6          C394   1.480       .  S
C6          C404   1.481       .  S
C6          C395   1.517       .  S
C7          C385   1.477       .  S
C7          C393   1.478       .  S
C7          C402   1.487       .  S
C7          C387   1.520       .  S
C8          C386   1.478       .  S
C8          C391   1.488       .  S
C8          C400   1.471       .  S
C8          C381   1.508       .  S
N9           N10   1.322       .  A
N9           N15   1.317       .  A
N9          Mn38   2.212       .  S
N10          C17   1.356       .  A
N11          N13   1.317       .  A
N11          N12   1.321       .  A
N11         Mn27   2.198       .  S
N12          C18   1.350       .  A
N13          N14   1.320       .  A
N13         Mn38   2.213       .  S
N14          C18   1.355       .  A
N15          N16   1.318       .  A
N15         Mn27   2.189       .  S
N16          C17   1.347       .  A
C17         C382   1.470       .  S
C18         C369   1.474       .  S
N19          N25   1.314       .  A
N19          N20   1.316       .  A
N19         Mn49   2.186       .  S
N20          C28   1.347       .  A
N21          N22   1.318       .  A
N21          N23   1.314       .  A
N21         Mn27   2.196   1_554  S
N22          C29   1.352       .  A
N23          N24   1.319       .  A
N23         Mn49   2.179       .  S
N24          C29   1.349       .  A
N25          N26   1.324       .  A
N25         Mn27   2.203   1_554  S
N26          C28   1.356       .  A
Mn27        Cl51   2.544       .  S
C28         C377   1.467       .  S
C29         C434   1.465       .  S
N30          N31   1.321       .  A
N30          N36   1.319       .  A
N30         Mn38   2.211       .  S
N31          C39   1.350       .  A
N32          N34   1.318       .  A
N32          N33   1.316       .  A
N32         Mn50   2.200       .  S
N33          C40   1.348       .  A
N34          N35   1.327       .  A
N34         Mn38   2.225       .  S
N35          C40   1.358       .  A
N36          N37   1.322       .  A
N36         Mn50   2.208       .  S
N37          C39   1.354       .  A
Mn38        Cl51   2.550       .  S
C39         C361   1.479       .  S
C40         C373   1.474       .  S
N41          N42   1.321       .  A
N41          N47   1.314       .  A
N41         Mn49   2.199       .  S
N42          C52   1.354       .  A
N43          N44   1.324       .  A
N43          N45   1.315       .  A
N43         Mn50   2.223   1_554  S
N44          C53   1.360       .  A
N45          N46   1.315       .  A
N45         Mn49   2.171       .  S
N46          C53   1.343       .  A
N47          N48   1.318       .  A
N47         Mn50   2.190   1_554  S
N48          C52   1.348       .  A
Mn49        Cl51   2.534   1_554  S
Mn50        Cl51   2.547       .  S
C52         C357   1.467       .  S
C53         C365   1.468       .  S
C54         C351   1.480       .  S
C54         C353   1.479       .  S
C54         C355   1.476       .  S
C54         C378   1.509       .  S
C55         C343   1.482       .  S
C55         C345   1.480       .  S
C55         C356   1.483       .  S
C55         C348   1.523       .  S
C56         C338   1.481       .  S
C56         C344   1.485       .  S
C56         C354   1.481       .  S
C56         C339   1.520       .  S
C57         C337   1.486       .  S
C57         C346   1.481       .  S
C57         C352   1.476       .  S
C57         C334   1.515       .  S
N58          N59   1.320       .  A
N58          N64   1.316       .  A
N58         Mn87   2.209       .  S
N59          C66   1.352       .  A
N60          N62   1.315       .  A
N60          N61   1.320       .  A
N60         Mn76   2.200   1_565  S
N61          C67   1.350       .  A
N62          N63   1.320       .  A
N62         Mn87   2.194   1_565  S
N63          C67   1.353       .  A
N64          N65   1.320       .  A
N64         Mn76   2.191       .  S
N65          C66   1.352       .  A
C66         C405   1.471       .  S
C67         C326   1.472       .  S
N68          N74   1.318       .  A
N68          N69   1.328       .  A
N68         Mn98   2.239   1_565  S
N69          C77   1.360       .  A
N70          N71   1.321       .  A
N70          N72   1.316       .  A
N70         Mn76   2.199       .  S
N71          C78   1.350       .  A
N72          N73   1.323       .  A
N72         Mn98   2.214       .  S
N73          C78   1.353       .  A
N74          N75   1.316       .  A
N74         Mn76   2.184   1_565  S
N75          C77   1.345       .  A
Mn76       Cl100   2.550       .  S
C77         C333   1.474       .  S
C78         C423   1.473       .  S
N79          N80   1.319       .  A
N79          N85   1.319       .  A
N79         Mn87   2.209   1_565  S
N80          C88   1.350       .  A
N81          N83   1.316       .  A
N81          N82   1.330       .  A
N81         Mn99   2.241       .  S
N82          C89   1.362       .  A
N83          N84   1.316       .  A
N83         Mn87   2.185       .  S
N84          C89   1.346       .  A
N85          N86   1.327       .  A
N85         Mn99   2.232   1_565  S
N86          C88   1.359       .  A
Mn87       Cl100   2.539       .  S
C88         C317   1.484       .  S
C89         C329   1.482       .  S
N90          N91   1.322       .  A
N90          N96   1.320       .  A
N90         Mn98   2.224       .  S
N91         C101   1.356       .  A
N92          N93   1.326       .  A
N92          N94   1.320       .  A
N92         Mn99   2.240   1_565  S
N93         C102   1.358       .  A
N94          N95   1.320       .  A
N94         Mn98   2.200   1_565  S
N95         C102   1.348       .  A
N96          N97   1.322       .  A
N96         Mn99   2.209       .  S
N97         C101   1.350       .  A
Mn98       Cl100   2.555       .  S
Mn99       Cl100   2.565       .  S
C101        C313   1.480       .  S
C102        C322   1.480       .  S
C103        C307   1.485       .  S
C103        C309   1.483       .  S
C103        C311   1.480       .  S
C103        C374   1.517       .  S
C104        C299   1.482       .  S
C104        C301   1.482       .  S
C104        C312   1.475       .  S
C104        C304   1.520       .  S
C105        C297   1.486       .  S
C105        C300   1.476       .  S
C105        C308   1.489       .  S
C105        C330   1.523       .  S
C106        C298   1.488       .  S
C106        C302   1.484       .  S
C106        C310   1.478       .  S
C106        C293   1.525       .  S
C107        C287   1.477       .  S
C107        C290   1.483       .  S
C107        C291   1.473       .  S
C107        C370   1.509       .  S
C108        C283   1.480       .  S
C108        C286   1.483       .  S
C108        C292   1.474       .  S
C108        C325   1.508       .  S
C109        C277   1.484       .  S
C109        C284   1.476       .  S
C109        C288   1.483       .  S
C109        C279   1.520       .  S
C110        C278   1.484       .  S
C110        C285   1.485       .  S
C110        C289   1.483       .  S
C110        C273   1.519       .  S
C111        C267   1.489       .  S
C111        C269   1.481       .  S
C111        C271   1.479       .  S
C111        C321   1.518       .  S
C112        C259   1.474       .  S
C112        C262   1.484       .  S
C112        C272   1.482       .  S
C112        C263   1.516       .  S
C113        C257   1.464       .  S
C113        C260   1.475       .  S
C113        C268   1.490       .  S
C113        C366   1.506       .  S
C114        C258   1.470       .  S
C114        C261   1.485       .  S
C114        C270   1.479       .  S
C114        C254   1.506       .  S
C115        C247   1.485       .  S
C115        C249   1.483       .  S
C115        C251   1.472       .  S
C115        C362   1.513       .  S
C116        C240   1.485       .  S
C116        C241   1.479       .  S
C116        C250   1.482       .  S
C116        C243   1.515       .  S
C117        C237   1.484       .  S
C117        C239   1.481       .  S
C117        C248   1.490       .  S
C117        C318   1.527       .  S
C118        C238   1.485       .  S
C118        C242   1.475       .  S
C118        C252   1.469       .  S
C118        C233   1.508       .  S
N119        N120   1.318       .  A
N119        N125   1.317       .  A
N119       Mn148   2.181       .  S
N120        C127   1.347       .  A
N121        N123   1.318       .  A
N121        N122   1.323       .  A
N121       Mn137   2.215   1_654  S
N122        C128   1.355       .  A
N123        N124   1.322       .  A
N123       Mn148   2.215   1_655  S
N124        C128   1.352       .  A
N125        N126   1.322       .  A
N125       Mn137   2.226   1_554  S
N126        C127   1.357       .  A
C127        C416   1.470       .  S
C128        C230   1.482       .  S
N129        N135   1.317       .  A
N129        N130   1.316       .  A
N129       Mn159   2.196   1_655  S
N130        C138   1.346       .  A
N131        N132   1.322       .  A
N131        N133   1.318       .  A
N131       Mn137   2.219       .  S
N132        C139   1.353       .  A
N133        N134   1.322       .  A
N133       Mn159   2.211       .  S
N134        C139   1.354       .  A
N135        N136   1.331       .  A
N135       Mn137   2.241   1_655  S
N136        C138   1.362       .  A
Mn137      Cl161   2.570       .  S
C138        C294   1.483       .  S
C139        C396   1.481       .  S
N140        N141   1.317       .  A
N140        N146   1.316       .  A
N140       Mn148   2.178   1_665  S
N141        C149   1.348       .  A
N142        N144   1.317       .  A
N142        N143   1.320       .  A
N142       Mn160   2.204   1_554  S
N143        C150   1.351       .  A
N144        N145   1.325       .  A
N144       Mn148   2.220   1_565  S
N145        C150   1.356       .  A
N146        N147   1.322       .  A
N146       Mn160   2.214   1_654  S
N147        C149   1.354       .  A
Mn148      Cl161   2.540   1_554  S
C149        C253   1.469       .  S
C150        C347   1.479       .  S
N151        N152   1.322       .  A
N151        N157   1.317       .  A
N151       Mn159   2.209   1_565  S
N152        C162   1.352       .  A
N153        N154   1.320       .  A
N153        N155   1.317       .  A
N153       Mn160   2.207   1_655  S
N154        C163   1.354       .  A
N155        N156   1.321       .  A
N155       Mn159   2.199   1_665  S
N156        C163   1.351       .  A
N157        N158   1.323       .  A
N157       Mn160   2.212       .  S
N158        C162   1.354       .  A
Mn159      Cl161   2.538       .  S
Mn160      Cl161   2.557   1_565  S
C162        C274   1.482       .  S
C163        C234   1.474       .  S
C164        C223   1.472       .  S
C164        C226   1.495       .  S
C164        C227   1.480       .  S
C164        C314   1.512       .  S
C165        C219   1.482       .  S
C165        C221   1.478       .  S
C165        C228   1.483       .  S
C165        C229   1.519       .  S
C166        C217   1.473       .  S
C166        C220   1.484       .  S
C166        C224   1.471       .  S
C166        C358   1.504       .  S
C167        C218   1.469       .  S
C167        C222   1.478       .  S
C167        C225   1.498       .  S
C167        C213   1.522       .  S
N168        N169   1.326       .  A
N168        N174   1.319       .  A
N168       Mn197   2.216       .  S
N169        C176   1.356       .  A
N170        N172   1.319       .  A
N170        N171   1.324       .  A
N170       Mn186   2.214   1_655  S
N171        C177   1.357       .  A
N172        N173   1.319       .  A
N172       Mn197   2.209   1_655  S
N173        C177   1.349       .  A
N174        N175   1.320       .  A
N174       Mn186   2.218       .  S
N175        C176   1.350       .  A
C176        C340   1.480       .  S
C177        C264   1.477       .  S
N178        N184   1.316       .  A
N178        N179   1.315       .  A
N178       Mn208   2.173   1_655  S
N179        C187   1.342       .  A
N180        N181   1.317       .  A
N180        N182   1.316       .  A
N180       Mn186   2.192       .  S
N181        C188   1.348       .  A
N182        N183   1.326       .  A
N182       Mn208   2.225       .  S
N183        C188   1.358       .  A
N184        N185   1.330       .  A
N184       Mn186   2.249   1_655  S
N185        C187   1.364       .  A
Mn186      Cl210   2.566       .  S
C187        C214   1.481       .  S
C188        C410   1.475       .  S
N189        N190   1.316       .  A
N189        N195   1.317       .  A
N189       Mn197   2.186   1_655  S
N190        C198   1.346       .  A
N191        N193   1.319       .  A
N191        N192   1.319       .  A
N191       Mn209   2.200       .  S
N192        C199   1.348       .  A
N193        N194   1.325       .  A
N193       Mn197   2.226       .  S
N194        C199   1.357       .  A
N195        N196   1.327       .  A
N195       Mn209   2.233   1_655  S
N196        C198   1.359       .  A
Mn197      Cl210   2.542       .  S
C198        C244   1.474       .  S
C199        C280   1.477       .  S
N200        N201   1.318       .  A
N200        N206   1.316       .  A
N200       Mn208   2.191       .  S
N201        C211   1.349       .  A
N202        N203   1.325       .  A
N202        N204   1.316       .  A
N202       Mn209   2.211   1_655  S
N203        C212   1.357       .  A
N204        N205   1.317       .  A
N204       Mn208   2.200   1_655  S
N205        C212   1.348       .  A
N206        N207   1.325       .  A
N206       Mn209   2.222       .  S
N207        C211   1.357       .  A
Mn208      Cl210   2.528       .  S
Mn209      Cl210   2.567       .  S
C211        C388   1.476       .  S
C212        C303   1.473       .  S
C213        C214   1.340       .  D
C213        H215   1.088       .  S
C214        H216   1.085       .  S
C217        C218   1.208       .  T
C219        C220   1.216       .  T
C221        C222   1.213       .  T
C223        C224   1.208       .  T
C225        C226   1.223       .  T
C227        C228   1.214       .  T
C229        C230   1.348       .  D
C229        H231   1.087       .  S
C230        H232   1.085       .  S
C233        C234   1.343       .  D
C233        H235   1.088       .  S
C234        H236   1.085       .  S
C237        C238   1.216       .  T
C239        C240   1.216       .  T
C241        C242   1.211       .  T
C243        C244   1.343       .  D
C243        H245   1.087       .  S
C244        H246   1.088       .  S
C247        C248   1.217       .  T
C249        C250   1.216       .  T
C251        C252   1.207       .  T
C253        C254   1.347       .  D
C253        H255   1.087       .  S
C254        H256   1.088       .  S
C257        C258   1.204       .  T
C259        C260   1.210       .  T
C261        C262   1.217       .  T
C263        C264   1.343       .  D
C263        H265   1.087       .  S
C264        H266   1.086       .  S
C267        C268   1.219       .  T
C269        C270   1.214       .  T
C271        C272   1.213       .  T
C273        C274   1.346       .  D
C273        H275   1.088       .  S
C274        H276   1.086       .  S
C277        C278   1.217       .  T
C279        C280   1.347       .  D
C279        H281   1.087       .  S
C280        H282   1.085       .  S
C283        C284   1.212       .  T
C285        C286   1.216       .  T
C287        C288   1.212       .  T
C289        C290   1.215       .  T
C291        C292   1.210       .  T
C293        C294   1.344       .  D
C293        H295   1.087       .  S
C294        H296   1.087       .  S
C297        C298   1.218       .  T
C299        C300   1.211       .  T
C301        C302   1.216       .  T
C303        C304   1.347       .  D
C303        H305   1.085       .  S
C304        H306   1.087       .  S
C307        C308   1.219       .  T
C309        C310   1.213       .  T
C311        C312   1.212       .  T
C313        C314   1.342       .  D
C313        H315   1.085       .  S
C314        H316   1.088       .  S
C317        C318   1.349       .  D
C317        H319   1.085       .  S
C318        H320   1.087       .  S
C321        C322   1.344       .  D
C321        H323   1.088       .  S
C322        H324   1.087       .  S
C325        C326   1.343       .  D
C325        H327   1.088       .  S
C326        H328   1.086       .  S
C329        C330   1.342       .  D
C329        H331   1.087       .  S
C330        H332   1.087       .  S
C333        C334   1.341       .  D
C333        H335   1.087       .  S
C334        H336   1.087       .  S
C337        C338   1.216       .  T
C339        C340   1.347       .  D
C339        H341   1.088       .  S
C340        H342   1.087       .  S
C343        C344   1.217       .  T
C345        C346   1.215       .  T
C347        C348   1.350       .  D
C347        H349   1.085       .  S
C348        H350   1.087       .  S
C351        C352   1.212       .  T
C353        C354   1.212       .  T
C355        C356   1.212       .  T
C357        C358   1.340       .  D
C357        H359   1.086       .  S
C358        H360   1.088       .  S
C361        C362   1.342       .  D
C361        H363   1.086       .  S
C362        H364   1.088       .  S
C365        C366   1.336       .  D
C365        H367   1.085       .  S
C366        H368   1.088       .  S
C369        C370   1.343       .  D
C369        H371   1.085       .  S
C370        H372   1.088       .  S
C373        C374   1.346       .  D
C373        H375   1.088       .  S
C374        H376   1.087       .  S
C377        C378   1.341       .  D
C377        H379   1.087       .  S
C378        H380   1.087       .  S
C381        C382   1.342       .  D
C381        H383   1.088       .  S
C382        H384   1.086       .  S
C385        C386   1.213       .  T
C387        C388   1.346       .  D
C387        H389   1.087       .  S
C388        H390   1.085       .  S
C391        C392   1.216       .  T
C393        C394   1.214       .  T
C395        C396   1.347       .  D
C395        H397   1.087       .  S
C396        H398   1.086       .  S
C399        C400   1.209       .  T
C401        C402   1.215       .  T
C403        C404   1.214       .  T
C405        C406   1.346       .  D
C405        H407   1.086       .  S
C406        H408   1.087       .  S
C409        C410   1.343       .  D
C409        H411   1.087       .  S
C410        H412   1.087       .  S
C413        C414   1.212       .  T
C415        C416   1.341       .  D
C415        H417   1.088       .  S
C416        H418   1.085       .  S
C419        C420   1.214       .  T
C421        C422   1.216       .  T
C423        C424   1.347       .  D
C423        H425   1.086       .  S
C424        H426   1.088       .  S
C427        C428   1.212       .  T
C429        C430   1.214       .  T
C431        C432   1.208       .  T
C433        C434   1.342       .  D
C433        H435   1.089       .  S
C434        H436   1.085       .  S
