geometry optimzed in LAMMPS
_audit_creation_date              2020-11-30 
_audit_creation_method            'lammps2cif' 
_symmetry_space_group_name_H-M    'P1' 
_symmetry_Int_Tables_number       1 
_symmetry_cell_setting            triclinic 
loop_ 
_symmetry_equiv_pos_as_xyz 
  x,y,z 
_cell_length_a                    24.69651399 
_cell_length_b                    26.897285882664814 
_cell_length_c                    25.180765117688143 
_cell_angle_alpha                 89.69788922849466 
_cell_angle_beta                  89.51636173850642 
_cell_angle_gamma                 90.16595170900345 
loop_ 
_atom_site_label 
_atom_site_type_symbol 
_atom_site_fract_x 
_atom_site_fract_y 
_atom_site_fract_z 
_atom_site_charge 
N1          N  0.59918085  0.44828207  0.43573720    -0.07300
N2          N  0.63468280  0.41244831  0.42781717    -0.59400
N3          N  0.56147731  0.56183341  0.39603886    -0.07000
N4          N  0.57172563  0.59617965  0.35949857    -0.61500
N5          N  0.59840874  0.56326593  0.43337116    -0.06600
N6          N  0.63418954  0.59873343  0.42327385    -0.59400
N7          N  0.56154660  0.44695622  0.39916485    -0.06200
N8          N  0.57078394  0.41027165  0.36555304    -0.61900
C9          C  0.61627649  0.38858077  0.38424594     0.94900
C10         C  0.61664768  0.61942686  0.37753530     0.94700
N11         N  0.39585053  0.56090669  0.43463535    -0.07500
N12         N  0.35932561  0.59509187  0.42359155    -0.60000
N13         N  0.43390357  0.44602547  0.40089613    -0.05600
N14         N  0.42346795  0.41135055  0.36545872    -0.61200
N15         N  0.39583112  0.44668279  0.43783885    -0.07500
N16         N  0.35857221  0.41264574  0.42792326    -0.60300
N17         N  0.43351803  0.56015245  0.39739394    -0.05200
N18         N  0.42329080  0.59371652  0.36044026    -0.61300
Mn19       Mn  0.49763650  0.50370008  0.39683926     1.18400
C20         C  0.37716774  0.61570213  0.37739425     0.97000
C21         C  0.37678640  0.39045382  0.38312170     0.97600
N22         N  0.59907100  0.56447643  0.55888333    -0.07500
N23         N  0.63636561  0.59815933  0.56974458    -0.63800
N24         N  0.56209196  0.45073698  0.59786837    -0.06300
N25         N  0.57319929  0.41683099  0.63424723    -0.64500
N26         N  0.59961674  0.45084240  0.56048407    -0.07000
N27         N  0.63686116  0.41713174  0.57063579    -0.64100
N28         N  0.56104595  0.56443816  0.59573861    -0.05900
N29         N  0.57147154  0.59807396  0.63210574    -0.64800
Mn30       Mn  0.60052338  0.50684811  0.49693189     1.10700
C31         C  0.61821739  0.61931935  0.61523287     0.98200
C32         C  0.61962493  0.39567395  0.61641313     0.98300
N33         N  0.39580453  0.44935057  0.56407550    -0.07000
N34         N  0.35909404  0.41527211  0.57634521    -0.62400
N35         N  0.43381551  0.56483819  0.59691700    -0.06400
N36         N  0.42415747  0.60041943  0.63175627    -0.59100
N37         N  0.39558786  0.56367138  0.56082534    -0.07700
N38         N  0.35884489  0.59807954  0.57080212    -0.62000
N39         N  0.43378819  0.45037900  0.60035240    -0.06700
N40         N  0.42364942  0.41713245  0.63792793    -0.59200
Mn41       Mn  0.39416843  0.50512950  0.49932855     1.20200
Mn42       Mn  0.49763844  0.50752784  0.59900995     1.10100
Cl43       Cl  0.49742000  0.50579251  0.49802728    -0.87100
C44         C  0.37729721  0.39493481  0.62221076     0.95200
C45         C  0.37768125  0.62130413  0.61454386     0.95000
N46         N  0.93420684  0.45060318  0.89750381    -0.07300
N47         N  0.92379036  0.41750919  0.86036532    -0.59400
N48         N  0.89558923  0.56247974  0.93788267    -0.07000
N49         N  0.85813122  0.59591279  0.92791494    -0.61500
N50         N  0.93391357  0.56410777  0.90137509    -0.06600
N51         N  0.92337852  0.59886333  0.86586754    -0.59400
N52         N  0.89603389  0.44960188  0.93420729    -0.06200
N53         N  0.85905338  0.41601990  0.92294946    -0.61900
C54         C  0.87710242  0.39574238  0.87723667     0.94900
C55         C  0.87631977  0.61883038  0.88334732     0.94700
N56         N  0.92850365  0.55788736  0.10022461    -0.07500
N57         N  0.91761666  0.59226066  0.13596012    -0.60000
N58         N  0.89280816  0.44458725  0.05822569    -0.05600
N59         N  0.85578063  0.40978378  0.06606127    -0.61200
N60         N  0.92880189  0.44377957  0.09638481    -0.07500
N61         N  0.91676047  0.40859423  0.13129253    -0.60300
N62         N  0.89218849  0.55874661  0.06238468    -0.05200
N63         N  0.85602388  0.59373857  0.07145822    -0.61300
Mn64       Mn  0.89284069  0.50387750  0.99823946     1.18400
C65         C  0.87215427  0.61433235  0.11757648     0.97000
C66         C  0.87169168  0.38725987  0.11135404     0.97600
N67         N  0.06116508  0.56604820  0.90333357    -0.07500
N68         N  0.07134729  0.60271523  0.86953301    -0.63800
N69         N  0.09897116  0.45129462  0.93724440    -0.06300
N70         N  0.13623728  0.41753555  0.92747909    -0.64500
N71         N  0.06246976  0.45174060  0.89957795    -0.07000
N72         N  0.07415087  0.41806233  0.86334619    -0.64100
N73         N  0.09777481  0.56506034  0.94096561    -0.05900
N74         N  0.13373854  0.60085023  0.93335804    -0.64800
Mn75       Mn  0.99807309  0.50806519  0.89876266     1.10700
C76         C  0.11637249  0.62455268  0.88911065     0.98200
C77         C  0.12036494  0.39708992  0.88131053     0.98300
N78         N  0.05634420  0.44434390  0.09820773    -0.07000
N79         N  0.06535629  0.40803876  0.13243251    -0.62400
N80         N  0.09496225  0.55932791  0.06615361    -0.06400
N81         N  0.13293931  0.59147508  0.07901611    -0.59100
N82         N  0.05670156  0.55783171  0.10279776    -0.07700
N83         N  0.06794368  0.58905756  0.14143943    -0.62000
N84         N  0.09481825  0.44590028  0.06179636    -0.06700
N85         N  0.13065716  0.41057646  0.07049887    -0.59200
Mn86       Mn  0.99248660  0.50100477  0.10103393     1.20200
Mn87       Mn  0.09807845  0.50549661  0.00151295     1.10100
Cl88       Cl  0.99543806  0.50468123  0.99988977    -0.87100
C89         C  0.11147999  0.38676466  0.11432859     0.95200
C90         C  0.11563780  0.60963947  0.12602196     0.95000
C91         C  0.74840960  0.25768421  0.74773240    -0.03700
N92         N  0.56148297  0.06345637  0.90221347    -0.07300
N93         N  0.57358531  0.09545419  0.86394377    -0.59400
N94         N  0.60043471  0.95111675  0.94099724    -0.07000
N95         N  0.63821893  0.91793872  0.93025415    -0.61500
N96         N  0.56268536  0.95012936  0.90450962    -0.06600
N97         N  0.57409267  0.91651738  0.86825201    -0.59400
N98         N  0.59859545  0.06476743  0.93938142    -0.06200
N99         N  0.63642108  0.09772561  0.92717931    -0.61900
C100        C  0.62050511  0.11659107  0.87996702     0.94900
C101        C  0.62132814  0.89661535  0.88467744     0.94700
N102        N  0.56201606  0.95063534  0.10330875    -0.07500
N103        N  0.57122176  0.91404026  0.13733309    -0.60000
N104        N  0.59805197  0.06664533  0.06510035    -0.05600
N105        N  0.63356692  0.10236138  0.07459854    -0.61200
N106        N  0.56039757  0.06577134  0.10233624    -0.07500
N107        N  0.56950090  0.10078515  0.13777641    -0.60300
N108        N  0.59946287  0.95141289  0.06589674    -0.05200
N109        N  0.63471621  0.91540692  0.07356751    -0.61300
Mn110      Mn  0.60062764  0.00863839  0.00305599     1.18400
C111        C  0.61649209  0.89196233  0.11795939     0.97000
C112        C  0.61455332  0.12410228  0.11942869     0.97600
N113        N  0.43492346  0.94699023  0.90536519    -0.07500
N114        N  0.42594359  0.91095052  0.87099421    -0.63800
N115        N  0.39546357  0.06174090  0.93980037    -0.06300
N116        N  0.35923568  0.09647497  0.92947088    -0.64500
N117        N  0.43336861  0.06154954  0.90281256    -0.07000
N118        N  0.42372701  0.09602107  0.86665517    -0.64100
N119        N  0.39693728  0.94722564  0.94231902    -0.05900
N120        N  0.36127385  0.91156109  0.93367077    -0.64800
Mn121      Mn  0.49796821  0.00551927  0.90237104     1.10700
C122        C  0.38020266  0.88871298  0.88948247     0.98200
C123        C  0.37772118  0.11803340  0.88402519     0.98300
N124        N  0.43337206  0.06381848  0.10232388    -0.07000
N125        N  0.42410586  0.10006372  0.13632743    -0.62400
N126        N  0.39671122  0.94897108  0.06796019    -0.06400
N127        N  0.36035706  0.91433497  0.07927509    -0.59100
N128        N  0.43450759  0.94968324  0.10444728    -0.07700
N129        N  0.42465515  0.91557395  0.14117292    -0.62000
N130        N  0.39608066  0.06332041  0.06533795    -0.06700
N131        N  0.36080219  0.09928689  0.07345219    -0.59200
Mn132      Mn  0.49762169  0.00739527  0.10471717     1.20200
Mn133      Mn  0.39460369  0.00530264  0.00389107     1.10100
Cl134      Cl  0.49767902  0.00673441  0.00346502    -0.87100
C135        C  0.37906228  0.12237104  0.11754196     0.95200
C136        C  0.37821236  0.89380079  0.12511326     0.95000
C137        C  0.25085228  0.75578205  0.75319586    -0.03700
N138        N  0.93492698  0.05725345  0.60563335    -0.07300
N139        N  0.92267746  0.09006571  0.64269229    -0.59400
N140        N  0.89841525  0.94450695  0.56631181    -0.07000
N141        N  0.85931944  0.91276874  0.57788904    -0.61500
N142        N  0.93559084  0.94404461  0.60334370    -0.06600
N143        N  0.92223746  0.91208398  0.64110481    -0.59400
N144        N  0.89775569  0.05743454  0.56852327    -0.06200
N145        N  0.85989368  0.09034135  0.57932273    -0.61900
C146        C  0.87559102  0.11037173  0.62576348     0.94900
C147        C  0.87454889  0.89286020  0.62467602     0.94700
N148        N  0.93524137  0.94769055  0.40409639    -0.07500
N149        N  0.92433919  0.91416741  0.36754520    -0.60000
N150        N  0.89653309  0.06042068  0.44444772    -0.05600
N151        N  0.86010821  0.09548997  0.43705715    -0.61200
N152        N  0.93344771  0.06187322  0.40667050    -0.07500
N153        N  0.92282481  0.09792604  0.37265690    -0.60300
N154        N  0.89855031  0.94603998  0.44222781    -0.05200
N155        N  0.86231259  0.91109802  0.43280003    -0.61300
Mn156      Mn  0.89665442  0.00203108  0.50524805     1.18400
C157        C  0.87933192  0.89108906  0.38653055     0.97000
C158        C  0.87688791  0.11868210  0.39206849     0.97600
N159        N  0.06421114  0.94368529  0.60063795    -0.07500
N160        N  0.07540394  0.90787242  0.63500065    -0.63800
N161        N  0.10040725  0.05938181  0.56618088    -0.06300
N162        N  0.13777140  0.09286414  0.57661816    -0.64500
N163        N  0.06375452  0.05771581  0.60431098    -0.07000
N164        N  0.07566515  0.09008298  0.64167688    -0.64100
N165        N  0.10176773  0.94595263  0.56324541    -0.05900
N166        N  0.13936231  0.91208698  0.57165573    -0.64800
Mn167      Mn  0.99976225  0.00061807  0.60511548     1.10700
C168        C  0.12195368  0.88805038  0.61591872     0.98200
C169        C  0.12159380  0.11215136  0.62344720     0.98300
N170        N  0.06040700  0.06460222  0.40515673    -0.07000
N171        N  0.06967245  0.09987501  0.36959775    -0.62400
N172        N  0.10119593  0.95068815  0.43816410    -0.06400
N173        N  0.13908023  0.91801393  0.42658380    -0.59100
N174        N  0.06341188  0.95077004  0.40171350    -0.07700
N175        N  0.07486314  0.91798186  0.36452416    -0.62000
N176        N  0.09874814  0.06418404  0.44114106    -0.06700
N177        N  0.13515327  0.09898849  0.43047105    -0.59200
Mn178      Mn  0.99808890  0.00616168  0.40281295     1.20200
Mn179      Mn  0.10190770  0.00511813  0.50218378     1.10100
Cl180      Cl  0.99916897  0.00340480  0.50391421    -0.87100
C181        C  0.11596015  0.12139464  0.38627648     0.95200
C182        C  0.12184972  0.89739017  0.38095172     0.95000
C183        C  0.75193284  0.75857611  0.24899441    -0.03700
C184        C  0.24517462  0.25641140  0.24920599    -0.03700
C185        C  0.75173297  0.25233915  0.25486497    -0.03700
C186        C  0.24188721  0.75344352  0.24954561    -0.03700
C187        C  0.24490936  0.25397267  0.75226195    -0.03700
C188        C  0.74399989  0.75325073  0.75328903    -0.03700
C189        C  0.15402388  0.14752241  0.65444553    -0.07300
C190        C  0.15398867  0.14260053  0.70966182    -0.18400
C191        C  0.18328541  0.17516242  0.74185033     0.09900
C192        C  0.21243360  0.21608350  0.71829930    -0.07200
C193        C  0.21400872  0.21840811  0.66205414    -0.18500
C194        C  0.18548801  0.18516365  0.63049038     0.09900
S195        S  0.17656818  0.16597823  0.81297585    -0.33400
S196        S  0.18910519  0.19425450  0.55966136    -0.33400
H197        H  0.22040275  0.15118471  0.55205508     0.27900
H198        H  0.15844717  0.11637188  0.81173448     0.27900
H199        H  0.13020117  0.11313838  0.72787167     0.18500
H200        H  0.23846556  0.24534997  0.64110344     0.18500
C201        C  0.21020865  0.22186392  0.28714638    -0.07300
C202        C  0.21420584  0.16920002  0.28289664    -0.18400
C203        C  0.18334264  0.13650848  0.31370366     0.09900
C204        C  0.14839342  0.15516359  0.35276894    -0.07200
C205        C  0.14603343  0.20633522  0.36108904    -0.18500
C206        C  0.17632112  0.23989254  0.32973379     0.09900
S207        S  0.19255664  0.07076047  0.30268644    -0.33400
S208        S  0.17123229  0.30384711  0.35118845    -0.33400
H209        H  0.17361721  0.32761444  0.30201993     0.27900
H210        H  0.13740989  0.05820563  0.30574304     0.27900
H211        H  0.24184696  0.15166016  0.25565132     0.18500
H212        H  0.12042259  0.22034760  0.39279335     0.18500
C213        C  0.78148757  0.79054655  0.72205649    -0.07300
C214        C  0.75579215  0.82177930  0.68465427    -0.18400
C215        C  0.78423230  0.85517788  0.65249668     0.09900
C216        C  0.84091075  0.85896573  0.65737830    -0.07200
C217        C  0.86648853  0.83219531  0.69757472    -0.18500
C218        C  0.83780848  0.80048922  0.73191646     0.09900
S219        S  0.74471402  0.89323831  0.60835156    -0.33400
S220        S  0.87408652  0.78229247  0.79133570    -0.33400
H221        H  0.92712542  0.79009153  0.77221692     0.27900
H222        H  0.76938219  0.93790899  0.62432367     0.27900
H223        H  0.71242910  0.81941855  0.67956479     0.18500
H224        H  0.90934173  0.83806688  0.70373034     0.18500
C225        C  0.21132751  0.79326957  0.28382000    -0.07300
C226        C  0.22029252  0.79654070  0.33925822    -0.18400
C227        C  0.19046655  0.82811973  0.37196336     0.09900
C228        C  0.15372307  0.86177889  0.34922807    -0.07200
C229        C  0.14931451  0.86384516  0.29399879    -0.18500
C230        C  0.17818900  0.83137899  0.26097903     0.09900
S231        S  0.19996964  0.82161557  0.44260579    -0.33400
S232        S  0.16657720  0.83737256  0.19051306    -0.33400
H233        H  0.14443291  0.88549810  0.19100523     0.27900
H234        H  0.14442763  0.82433549  0.45515907     0.27900
H235        H  0.25020971  0.77402627  0.35880150     0.18500
H236        H  0.12242936  0.89094558  0.27647742     0.18500
C237        C  0.84522776  0.85831631  0.35438156    -0.07300
C238        C  0.84092681  0.80791024  0.36710844    -0.18400
C239        C  0.81148886  0.77485438  0.33519765     0.09900
C240        C  0.78456507  0.79270152  0.28818201    -0.07200
C241        C  0.78554252  0.84513128  0.28035084    -0.18500
C242        C  0.81593244  0.87723433  0.31150626     0.09900
S243        S  0.81247044  0.71107622  0.35821480    -0.33400
S244        S  0.81498893  0.94260467  0.29449354    -0.33400
H245        H  0.81727743  0.96033689  0.34682893     0.27900
H246        H  0.81972972  0.68911705  0.30853744     0.27900
H247        H  0.86215353  0.79381248  0.40154266     0.18500
H248        H  0.76190815  0.86321472  0.25045318     0.18500
C249        C  0.79045980  0.22411595  0.29386052    -0.07300
C250        C  0.76426616  0.19985802  0.33745014    -0.18400
C251        C  0.79108721  0.16730018  0.37158867     0.09900
C252        C  0.84674843  0.15829943  0.36385494    -0.07200
C253        C  0.87474248  0.18646521  0.32567000    -0.18500
C254        C  0.84874790  0.22056254  0.29230863     0.09900
S255        S  0.74972362  0.13399438  0.41916894    -0.33400
S256        S  0.89646356  0.25628810  0.25262667    -0.33400
H257        H  0.87291471  0.30304977  0.25870623     0.27900
H258        H  0.76284557  0.08727277  0.39771073     0.27900
H259        H  0.72074986  0.20241560  0.34214040     0.18500
H260        H  0.91820492  0.18195466  0.32185185     0.18500
C261        C  0.15579430  0.85275003  0.64586038    -0.07300
C262        C  0.20502710  0.86991530  0.66525776    -0.18400
C263        C  0.23817987  0.84015304  0.69733503     0.09900
C264        C  0.22011100  0.79116685  0.71332867    -0.07200
C265        C  0.17393198  0.77280062  0.68663424    -0.18500
C266        C  0.14088814  0.80308258  0.65519978     0.09900
S267        S  0.30443463  0.86605416  0.71136112    -0.33400
S268        S  0.08019679  0.77606673  0.62822787    -0.33400
H269        H  0.07816206  0.80635978  0.58262466     0.27900
H270        H  0.29397526  0.91584503  0.69768395     0.27900
H271        H  0.21758376  0.90734707  0.65478064     0.18500
H272        H  0.16137027  0.73476688  0.69207601     0.18500
C273        C  0.64761981  0.15702920  0.15296487    -0.07300
C274        C  0.68121459  0.13414875  0.18961753    -0.18400
C275        C  0.71647871  0.16100466  0.22198118     0.09900
C276        C  0.71614680  0.21492496  0.22095644    -0.07200
C277        C  0.68157948  0.23694937  0.18237448    -0.18500
C278        C  0.64797264  0.20910121  0.14891894     0.09900
S279        S  0.76098763  0.11956691  0.25751983    -0.33400
S280        S  0.60711670  0.24250147  0.10166935    -0.33400
H281        H  0.56744258  0.20564117  0.09470419     0.27900
H282        H  0.80942064  0.13972182  0.23787532     0.27900
H283        H  0.68143440  0.09381952  0.19143975     0.18500
H284        H  0.68019243  0.27705136  0.17861923     0.18500
C285        C  0.34841036  0.16157314  0.14599825    -0.07300
C286        C  0.29286903  0.16494597  0.13700719    -0.18400
C287        C  0.25918468  0.19510348  0.16778164     0.09900
C288        C  0.28128409  0.22408412  0.21057435    -0.07200
C289        C  0.33861028  0.22394010  0.21489965    -0.18500
C290        C  0.37177800  0.19332959  0.18380136     0.09900
S291        S  0.18912543  0.19346916  0.14712786    -0.33400
S292        S  0.44390649  0.19820282  0.19319143    -0.33400
H293        H  0.45688038  0.19369959  0.13889533     0.27900
H294        H  0.16494653  0.18744185  0.19700002     0.27900
H295        H  0.27467748  0.14211657  0.10657848     0.18500
H296        H  0.35901051  0.24795567  0.24243264     0.18500
C297        C  0.27902640  0.78609980  0.21149896    -0.07300
C298        C  0.31501852  0.81868364  0.23806051    -0.18400
C299        C  0.34807033  0.85301676  0.21168998     0.09900
C300        C  0.34730340  0.85587217  0.15590247    -0.07200
C301        C  0.31319131  0.82371588  0.12828056    -0.18500
C302        C  0.27857727  0.78958737  0.15424088     0.09900
S303        S  0.38705854  0.89434199  0.25258533    -0.33400
S304        S  0.23083128  0.75887788  0.11085150    -0.33400
H305        H  0.25988848  0.76429193  0.06286163     0.27900
H306        H  0.36899751  0.93755398  0.22650960     0.27900
H307        H  0.31667049  0.81799243  0.28103548     0.18500
H308        H  0.31203420  0.82704287  0.08544573     0.18500
C309        C  0.65225327  0.85974847  0.85310987    -0.07300
C310        C  0.62463871  0.83311768  0.81403180    -0.18400
C311        C  0.65132112  0.80049740  0.77923511     0.09900
C312        C  0.70755410  0.78937922  0.78720748    -0.07200
C313        C  0.73473960  0.81879296  0.82525848    -0.18500
C314        C  0.70854369  0.85329889  0.85743731     0.09900
S315        S  0.61291001  0.78294500  0.72121877    -0.33400
S316        S  0.75073730  0.88988761  0.90035427    -0.33400
H317        H  0.73027582  0.93546730  0.88162419     0.27900
H318        H  0.56084315  0.78894234  0.74335491     0.27900
H319        H  0.58196510  0.84027571  0.80857080     0.18500
H320        H  0.77775871  0.81502989  0.83015486     0.18500
C321        C  0.28361745  0.22032198  0.78717520    -0.07300
C322        C  0.28192515  0.22216903  0.84371260    -0.18400
C323        C  0.31340536  0.19128811  0.87598535     0.09900
C324        C  0.34770469  0.15574650  0.85275274    -0.07200
C325        C  0.35080904  0.15334348  0.79741966    -0.18500
C326        C  0.31962762  0.18388439  0.76452518     0.09900
S327        S  0.30768042  0.19939143  0.94688389    -0.33400
S328        S  0.32590930  0.16849710  0.69478989    -0.33400
H329        H  0.32631999  0.21618325  0.67304030     0.27900
H330        H  0.36311511  0.19199078  0.95658591     0.27900
H331        H  0.25383278  0.24564817  0.86459625     0.18500
H332        H  0.37650171  0.12548968  0.77919910     0.18500
C333        C  0.64773462  0.85273081  0.14586477    -0.07300
C334        C  0.70382498  0.85209387  0.13834517    -0.18400
C335        C  0.73753434  0.82109875  0.16819019     0.09900
C336        C  0.71528195  0.79040158  0.20991027    -0.07200
C337        C  0.65776455  0.78693007  0.21158600    -0.18500
C338        C  0.62435579  0.81776443  0.18105123     0.09900
S339        S  0.80915278  0.82546445  0.15331524    -0.33400
S340        S  0.55214778  0.80945325  0.18803932    -0.33400
H341        H  0.54075250  0.81925501  0.13435250     0.27900
H342        H  0.80426679  0.84338607  0.10097139     0.27900
H343        H  0.72202799  0.87787063  0.11021045     0.18500
H344        H  0.63727033  0.76050863  0.23704431     0.18500
C345        C  0.34920368  0.85062867  0.85994168    -0.07300
C346        C  0.29306517  0.85570564  0.85781231    -0.18400
C347        C  0.26111125  0.82583731  0.82493917     0.09900
C348        C  0.28565672  0.78806485  0.79251973    -0.07200
C349        C  0.34231114  0.78128714  0.79871496    -0.18500
C350        C  0.37383051  0.81196425  0.83118482     0.09900
S351        S  0.18985786  0.84128236  0.82221128    -0.33400
S352        S  0.44525547  0.79878288  0.83527366    -0.33400
H353        H  0.45068389  0.81369177  0.88843201     0.27900
H354        H  0.18772329  0.87430460  0.86527960     0.27900
H355        H  0.27435237  0.88551600  0.88001969     0.18500
H356        H  0.36332624  0.75140151  0.77925032     0.18500
C357        C  0.84341938  0.14711363  0.65634090    -0.07300
C358        C  0.86953581  0.17493675  0.69520473    -0.18400
C359        C  0.84179707  0.20947272  0.72687677     0.09900
C360        C  0.78586591  0.22076944  0.71600457    -0.07200
C361        C  0.75994689  0.18986522  0.67866200    -0.18500
C362        C  0.78722385  0.15354657  0.64966285     0.09900
S363        S  0.87886042  0.22968794  0.78481788    -0.33400
S364        S  0.74634568  0.11437270  0.60810670    -0.33400
H365        H  0.76862310  0.06993968  0.62795626     0.27900
H366        H  0.93120088  0.22558094  0.76278290     0.27900
H367        H  0.91186681  0.16763112  0.70273667     0.18500
H368        H  0.71692328  0.19347074  0.67243658     0.18500
C369        C  0.71112524  0.22111682  0.78097029    -0.07300
C370        C  0.73722420  0.19059508  0.81885633    -0.13200
C371        C  0.70961060  0.15616820  0.85069281     0.09900
C372        C  0.65293467  0.15162402  0.84673334    -0.07200
C373        C  0.62656270  0.17863880  0.80708696    -0.18500
C374        C  0.65469509  0.21058563  0.77209957     0.09900
S375        S  0.75033668  0.11663912  0.89219636    -0.33400
S376        S  0.61780163  0.22839741  0.71297895    -0.33400
H377        H  0.56507273  0.21862187  0.73189488     0.27900
H378        H  0.72460802  0.07260246  0.87576470     0.27900
H379        H  0.78050737  0.19336029  0.82372442     0.18500
H380        H  0.58367024  0.17243878  0.80164975     0.18500
C381        C  0.14251165  0.34867115  0.14387460    -0.07300
C382        C  0.19867638  0.34775057  0.13685818    -0.18400
C383        C  0.23204818  0.31834703  0.16876026     0.09900
C384        C  0.20903852  0.28859814  0.21087224    -0.07200
C385        C  0.15159945  0.28719639  0.21419159    -0.18500
C386        C  0.11868894  0.31630738  0.18155993     0.09900
S387        S  0.30428581  0.32402647  0.15672445    -0.33400
S388        S  0.04640781  0.30890876  0.18908840    -0.33400
H389        H  0.03563510  0.31330160  0.13447259     0.27900
H390        H  0.30125800  0.34144778  0.10404792     0.27900
H391        H  0.21715088  0.37232712  0.10769725     0.18500
H392        H  0.13095157  0.26282768  0.24180568     0.18500
C393        C  0.14695068  0.64434699  0.15879828    -0.07300
C394        C  0.11879573  0.67913698  0.18899769    -0.18400
C395        C  0.14546315  0.71394381  0.22082172     0.09900
C396        C  0.20389662  0.71649890  0.21958335    -0.07200
C397        C  0.23100646  0.67831176  0.19126156    -0.18500
C398        C  0.20369589  0.64260357  0.16186199     0.09900
S399        S  0.10103542  0.74674583  0.26627046    -0.33400
S400        S  0.24395268  0.59484870  0.13091987    -0.33400
H401        H  0.20783024  0.55603174  0.14405361     0.27900
H402        H  0.05398526  0.74521765  0.23517688     0.27900
H403        H  0.07494776  0.67788161  0.18882342     0.18500
H404        H  0.27485429  0.67704815  0.19069098     0.18500
C405        C  0.78959062  0.72701633  0.21086819    -0.07300
C406        C  0.76245522  0.70080336  0.16991980    -0.18400
C407        C  0.78755488  0.66445349  0.13912632     0.09900
C408        C  0.84297170  0.65439914  0.14614873    -0.07200
C409        C  0.87204899  0.68343766  0.18196525    -0.18500
C410        C  0.84747460  0.72051115  0.21271135     0.09900
S411        S  0.74457256  0.62937473  0.09554971    -0.33400
S412        S  0.89589540  0.75616100  0.25019992    -0.33400
H413        H  0.87769387  0.80300661  0.23412635     0.27900
H414        H  0.76075404  0.58315137  0.11644378     0.27900
H415        H  0.71918693  0.70512691  0.16520308     0.18500
H416        H  0.91529492  0.67763738  0.18551687     0.18500
C417        C  0.21469430  0.72472080  0.79322341    -0.07300
C418        C  0.15782901  0.73167118  0.79802485    -0.18400
C419        C  0.12500532  0.70125258  0.83029412     0.09900
C420        C  0.14850625  0.66290229  0.86039864    -0.07200
C421        C  0.20474170  0.65812843  0.86012082    -0.18500
C422        C  0.23800519  0.68768649  0.82736941     0.09900
S423        S  0.05337006  0.71416949  0.83208464    -0.33400
S424        S  0.30936195  0.67244196  0.82669790    -0.33400
H425        H  0.30981487  0.64026917  0.87088807     0.27900
H426        H  0.04561752  0.69967823  0.88537603     0.27900
H427        H  0.13756535  0.76124817  0.77734215     0.18500
H428        H  0.22258319  0.62862076  0.88346637     0.18500
C429        C  0.84387097  0.65415977  0.85220538    -0.07300
C430        C  0.84915347  0.65345608  0.79692033    -0.18400
C431        C  0.81724256  0.68358646  0.76427821     0.09900
C432        C  0.77794802  0.71623664  0.78756288    -0.07200
C433        C  0.77128698  0.71371034  0.84354016    -0.18500
C434        C  0.80490538  0.68523357  0.87568005     0.09900
S435        S  0.83193400  0.68217600  0.69372671    -0.33400
S436        S  0.79734362  0.69228930  0.94658662    -0.33400
H437        H  0.85325966  0.69062735  0.95682810     0.27900
H438        H  0.86918343  0.64274040  0.69366509     0.27900
H439        H  0.87881093  0.62899686  0.77910763     0.18500
H440        H  0.73980753  0.73403597  0.86374347     0.18500
C441        C  0.15119075  0.35907112  0.85184894    -0.07300
C442        C  0.12247440  0.32512723  0.82133507    -0.18400
C443        C  0.14822839  0.29015006  0.78884724     0.09900
C444        C  0.20691866  0.28802068  0.78709928    -0.07200
C445        C  0.23452669  0.32405004  0.81783294    -0.18500
C446        C  0.20803366  0.35797763  0.85044644     0.09900
S447        S  0.09922088  0.25410192  0.75195401    -0.33400
S448        S  0.24950648  0.40089771  0.88675143    -0.33400
H449        H  0.23399608  0.38047484  0.93619026     0.27900
H450        H  0.12061589  0.26092305  0.70099936     0.27900
H451        H  0.07854821  0.32656888  0.82215984     0.18500
H452        H  0.27840658  0.32514343  0.81731125     0.18500
C453        C  0.83676007  0.35361787  0.14233634    -0.07300
C454        C  0.84061636  0.30239250  0.13513523    -0.18400
C455        C  0.81237137  0.26882237  0.16849162     0.09900
C456        C  0.78107669  0.28702857  0.21267618    -0.07200
C457        C  0.77277848  0.33936943  0.21367055    -0.18500
C458        C  0.80082809  0.37221782  0.18056450     0.09900
S459        S  0.82116625  0.20344151  0.15495875    -0.33400
S460        S  0.79015400  0.43794841  0.19073367    -0.33400
H461        H  0.79503953  0.45216756  0.13719591     0.27900
H462        H  0.84520765  0.20834024  0.10436514     0.27900
H463        H  0.86735678  0.28870000  0.10424472     0.18500
H464        H  0.74412637  0.35665423  0.24005918     0.18500
C465        C  0.84577861  0.35941704  0.84608491    -0.07300
C466        C  0.85118563  0.36016478  0.79079817    -0.18400
C467        C  0.82093841  0.32830440  0.75851309     0.09900
C468        C  0.78265513  0.29431714  0.78204618    -0.07200
C469        C  0.77642629  0.29604074  0.83799591    -0.18500
C470        C  0.80839043  0.32631291  0.86979511     0.09900
S471        S  0.83643720  0.32925522  0.68808388    -0.33400
S472        S  0.80071640  0.31883017  0.94069693    -0.33400
H473        H  0.85663664  0.32112778  0.95078620     0.27900
H474        H  0.87188010  0.37026765  0.68742573     0.27900
H475        H  0.87977491  0.38585412  0.77275138     0.18500
H476        H  0.74617504  0.27409868  0.85844735     0.18500
C477        C  0.64945068  0.65473397  0.64788852    -0.07300
C478        C  0.64211774  0.65289334  0.70307722    -0.18400
C479        C  0.67160133  0.68344975  0.73738708     0.09900
C480        C  0.71020297  0.71825398  0.71629862    -0.07200
C481        C  0.71808512  0.71806882  0.66026430    -0.18500
C482        C  0.68778642  0.68808550  0.62640405     0.09900
S483        S  0.65605939  0.67868871  0.80762036    -0.33400
S484        S  0.69968792  0.69518852  0.55598204    -0.33400
H485        H  0.64456644  0.69267872  0.54250703     0.27900
H486        H  0.61089344  0.64694647  0.80429148     0.27900
H487        H  0.61329151  0.62660545  0.71967202     0.18500
H488        H  0.74914710  0.74024322  0.64137769     0.18500
C489        C  0.34583518  0.35866547  0.65491476    -0.07300
C490        C  0.28948664  0.35901041  0.65085526    -0.18400
C491        C  0.25630211  0.32823858  0.68247636     0.09900
C492        C  0.27972920  0.29238579  0.71786627    -0.07200
C493        C  0.33678278  0.29607895  0.72450883    -0.18500
C494        C  0.36959646  0.32675434  0.69257374     0.09900
S495        S  0.18429361  0.33690216  0.67558449    -0.33400
S496        S  0.44184370  0.32129185  0.70049387    -0.33400
H497        H  0.45338101  0.32319934  0.64568925     0.27900
H498        H  0.18563004  0.38351790  0.65001171     0.27900
H499        H  0.27101952  0.38463563  0.62315251     0.18500
H500        H  0.35755297  0.27414056  0.75387485     0.18500
C501        C  0.71466805  0.28525635  0.29298390    -0.07300
C502        C  0.65721749  0.28143162  0.29311529    -0.18400
C503        C  0.62398344  0.31317151  0.32322265     0.09900
C504        C  0.64752330  0.34945006  0.35604858    -0.07200
C505        C  0.70371164  0.35044928  0.36068668    -0.18500
C506        C  0.73730305  0.31923136  0.33085239     0.09900
S507        S  0.55173919  0.30427743  0.31914770    -0.33400
S508        S  0.80915384  0.32771949  0.34030421    -0.33400
H509        H  0.80658908  0.35118743  0.39006009     0.27900
H510        H  0.54139180  0.31503746  0.37290282     0.27900
H511        H  0.63673334  0.25333362  0.27045584     0.18500
H512        H  0.72192254  0.37789318  0.38632610     0.18500
C513        C  0.34533092  0.65193150  0.34574854    -0.07300
C514        C  0.28958669  0.65459702  0.35516762    -0.18400
C515        C  0.25580490  0.68567003  0.32532675     0.09900
C516        C  0.27819593  0.71791462  0.28514246    -0.07200
C517        C  0.33470528  0.71299068  0.27512345    -0.18500
C518        C  0.36792289  0.68167038  0.30501777     0.09900
S519        S  0.18422425  0.68254901  0.34048409    -0.33400
S520        S  0.43930317  0.68253187  0.28988298    -0.33400
H521        H  0.43719281  0.63592176  0.26482904     0.27900
H522        H  0.18598106  0.64943021  0.38380893     0.27900
H523        H  0.27195896  0.63083897  0.38553447     0.18500
H524        H  0.35431419  0.73209780  0.24245500     0.18500
C525        C  0.64974072  0.65426584  0.34544588    -0.07300
C526        C  0.64895304  0.70510058  0.35651353    -0.18400
C527        C  0.68023203  0.73949180  0.32694318     0.09900
C528        C  0.71503835  0.72271360  0.28438608    -0.07200
C529        C  0.71658155  0.67023063  0.27676819    -0.18500
C530        C  0.68425604  0.63685253  0.30535748     0.09900
S531        S  0.67440324  0.80298772  0.34974490    -0.33400
S532        S  0.68968345  0.57176345  0.28878962    -0.33400
H533        H  0.68599570  0.55376687  0.34116441     0.27900
H534        H  0.67949482  0.82753592  0.30108703     0.27900
H535        H  0.62333240  0.71826361  0.38862924     0.18500
H536        H  0.74481264  0.65282078  0.25013310     0.18500
C537        C  0.65153169  0.35926028  0.64742584    -0.07300
C538        C  0.64594063  0.35957981  0.70267966    -0.18400
C539        C  0.67624885  0.32804303  0.73533877     0.09900
C540        C  0.71414582  0.29381344  0.71239483    -0.07200
C541        C  0.72036410  0.29543798  0.65633658    -0.18500
C542        C  0.68904318  0.32637974  0.62410113     0.09900
S543        S  0.66110314  0.33002715  0.80575139    -0.33400
S544        S  0.69788557  0.32045012  0.55324973    -0.33400
H545        H  0.64217713  0.32289357  0.54223807     0.27900
H546        H  0.63435553  0.37612126  0.80635630     0.27900
H547        H  0.61713438  0.38481316  0.72060245     0.18500
H548        H  0.75032456  0.27316996  0.63630970     0.18500
C549        C  0.34539813  0.65689893  0.64607857    -0.07300
C550        C  0.29596898  0.64048214  0.66664505    -0.18400
C551        C  0.26384496  0.67025785  0.69989263     0.09900
C552        C  0.28246321  0.71914709  0.71504573    -0.07200
C553        C  0.32965826  0.73652212  0.68829560    -0.18500
C554        C  0.36211921  0.70583860  0.65638441     0.09900
S555        S  0.19803724  0.64394602  0.71622215    -0.33400
S556        S  0.42431674  0.73176698  0.63006716    -0.33400
H557        H  0.42895065  0.70044197  0.58580816     0.27900
H558        H  0.21176741  0.59353222  0.71030677     0.27900
H559        H  0.28225335  0.60355637  0.65610458     0.18500
H560        H  0.34309193  0.77422865  0.69347981     0.18500
C561        C  0.34353367  0.35698685  0.35055158    -0.07300
C562        C  0.34333466  0.30594790  0.36077449    -0.18400
C563        C  0.31255554  0.27271684  0.33022645     0.09900
C564        C  0.28035670  0.29080593  0.28665561    -0.07200
C565        C  0.27861946  0.34344838  0.28073415    -0.18500
C566        C  0.31016018  0.37581478  0.31056804     0.09900
S567        S  0.31442633  0.20921269  0.35410623    -0.33400
S568        S  0.30322920  0.44156837  0.29753196    -0.33400
H569        H  0.35862451  0.45284793  0.30046277     0.27900
H570        H  0.31985262  0.18555081  0.30526211     0.27900
H571        H  0.36746544  0.29175067  0.39323464     0.18500
H572        H  0.25166844  0.36140740  0.25346386     0.18500
loop_ 
_geom_bond_atom_site_label_1 
_geom_bond_atom_site_label_2 
_geom_bond_distance 
_geom_bond_site_symmetry_2 
_ccdc_geom_bond_type 
N1            N2   1.320       .  A
N1            N7   1.314       .  A
N1          Mn30   2.210       .  S
N2            C9   1.355       .  A
N3            N5   1.316       .  A
N3            N4   1.323       .  A
N3          Mn19   2.217       .  S
N4           C10   1.355       .  A
N5            N6   1.321       .  A
N5          Mn30   2.201       .  S
N6           C10   1.352       .  A
N7            N8   1.322       .  A
N7          Mn19   2.200       .  S
N8            C9   1.354       .  A
C9          C504   1.487       .  S
C10         C525   1.475       .  S
N11          N17   1.316       .  A
N11          N12   1.320       .  A
N11         Mn41   2.209       .  S
N12          C20   1.356       .  A
N13          N14   1.321       .  A
N13          N15   1.317       .  A
N13         Mn19   2.208       .  S
N14          C21   1.352       .  A
N15          N16   1.322       .  A
N15         Mn41   2.213       .  S
N16          C21   1.353       .  A
N17          N18   1.320       .  A
N17         Mn19   2.197       .  S
N18          C20   1.352       .  A
Mn19        Cl43   2.549       .  S
C20         C513   1.486       .  S
C21         C561   1.474       .  S
N22          N23   1.321       .  A
N22          N28   1.315       .  A
N22         Mn30   2.205       .  S
N23          C31   1.355       .  A
N24          N26   1.315       .  A
N24          N25   1.320       .  A
N24         Mn42   2.209       .  S
N25          C32   1.356       .  A
N26          N27   1.319       .  A
N26         Mn30   2.192       .  S
N27          C32   1.351       .  A
N28          N29   1.317       .  A
N28         Mn42   2.187       .  S
N29          C31   1.351       .  A
Mn30        Cl43   2.546       .  S
C31         C477   1.481       .  S
C32         C537   1.482       .  S
N33          N34   1.321       .  A
N33          N39   1.315       .  A
N33         Mn41   2.211       .  S
N34          C44   1.356       .  A
N35          N36   1.323       .  A
N35          N37   1.316       .  A
N35         Mn42   2.209       .  S
N36          C45   1.353       .  A
N37          N38   1.322       .  A
N37         Mn41   2.215       .  S
N38          C45   1.354       .  A
N39          N40   1.320       .  A
N39         Mn42   2.199       .  S
N40          C44   1.353       .  A
Mn41        Cl43   2.550       .  S
Mn42        Cl43   2.544       .  S
C44         C489   1.487       .  S
C45         C549   1.478       .  S
N46          N47   1.321       .  A
N46          N52   1.315       .  A
N46         Mn75   2.206       .  S
N47          C54   1.356       .  A
N48          N50   1.314       .  A
N48          N49   1.317       .  A
N48         Mn64   2.184       .  S
N49          C55   1.350       .  A
N50          N51   1.318       .  A
N50         Mn75   2.191       .  S
N51          C55   1.353       .  A
N52          N53   1.316       .  A
N52         Mn64   2.182       .  S
N53          C54   1.349       .  A
C54         C465   1.477       .  S
C55         C429   1.472       .  S
N56          N62   1.314       .  A
N56          N57   1.320       .  A
N56         Mn86   2.203       .  S
N57          C65   1.355       .  A
N58          N59   1.320       .  A
N58          N60   1.315       .  A
N58         Mn64   2.191   1_554  S
N59          C66   1.351       .  A
N60          N61   1.320       .  A
N60         Mn86   2.202       .  S
N61          C66   1.352       .  A
N62          N63   1.319       .  A
N62         Mn64   2.194   1_554  S
N63          C65   1.352       .  A
Mn64        Cl88   2.535       .  S
C65         C408   1.484       .  S
C66         C453   1.466       .  S
N67          N68   1.322       .  A
N67          N73   1.315       .  A
N67         Mn75   2.206   1_455  S
N68          C76   1.354       .  A
N69          N71   1.314       .  A
N69          N70   1.317       .  A
N69         Mn87   2.184   1_556  S
N70          C77   1.349       .  A
N71          N72   1.320       .  A
N71         Mn75   2.200   1_455  S
N72          C77   1.355       .  A
N73          N74   1.320       .  A
N73         Mn87   2.206   1_556  S
N74          C76   1.354       .  A
Mn75        Cl88   2.548       .  S
C76         C420   1.481       .  S
C77         C441   1.476       .  S
N78          N79   1.320       .  A
N78          N84   1.315       .  A
N78         Mn86   2.197   1_455  S
N79          C89   1.353       .  A
N80          N81   1.317       .  A
N80          N82   1.316       .  A
N80         Mn87   2.185       .  S
N81          C90   1.349       .  A
N82          N83   1.320       .  A
N82         Mn86   2.200   1_455  S
N83          C90   1.353       .  A
N84          N85   1.319       .  A
N84         Mn87   2.203       .  S
N85          C89   1.354       .  A
Mn86        Cl88   2.549   1_554  S
Mn87        Cl88   2.536   1_454  S
C89         C381   1.482       .  S
C90         C393   1.472       .  S
C91         C360   1.575       .  S
C91         C369   1.578       .  S
C91         C468   1.565       .  S
C91         C540   1.569       .  S
N92          N93   1.320       .  A
N92          N98   1.316       .  A
N92        Mn121   2.208       .  S
N93         C100   1.355       .  A
N94          N96   1.315       .  A
N94          N95   1.320       .  A
N94        Mn110   2.205   1_566  S
N95         C101   1.354       .  A
N96          N97   1.318       .  A
N96        Mn121   2.189   1_565  S
N97         C101   1.352       .  A
N98          N99   1.319       .  A
N98        Mn110   2.197   1_556  S
N99         C100   1.352       .  A
C100        C372   1.485       .  S
C101        C309   1.484       .  S
N102        N108   1.315       .  A
N102        N103   1.323       .  A
N102       Mn132   2.208   1_565  S
N103        C111   1.356       .  A
N104        N105   1.323       .  A
N104        N106   1.315       .  A
N104       Mn110   2.214       .  S
N105        C112   1.355       .  A
N106        N107   1.321       .  A
N106       Mn132   2.204       .  S
N107        C112   1.352       .  A
N108        N109   1.319       .  A
N108       Mn110   2.202   1_565  S
N109        C111   1.354       .  A
Mn110      Cl134   2.543       .  S
C111        C333   1.486       .  S
C112        C273   1.476       .  S
N113        N114   1.322       .  A
N113        N119   1.316       .  A
N113       Mn121   2.212   1_565  S
N114        C122   1.355       .  A
N115        N117   1.315       .  A
N115        N116   1.322       .  A
N115       Mn133   2.210   1_556  S
N116        C123   1.355       .  A
N117        N118   1.320       .  A
N117       Mn121   2.198       .  S
N118        C123   1.353       .  A
N119        N120   1.321       .  A
N119       Mn133   2.207   1_566  S
N120        C122   1.354       .  A
Mn121      Cl134   2.546   1_556  S
C122        C345   1.484       .  S
C123        C324   1.485       .  S
N124        N125   1.320       .  A
N124        N130   1.315       .  A
N124       Mn132   2.200       .  S
N125        C135   1.353       .  A
N126        N127   1.320       .  A
N126        N128   1.315       .  A
N126       Mn133   2.208   1_565  S
N127        C136   1.355       .  A
N128        N129   1.320       .  A
N128       Mn132   2.197   1_565  S
N129        C136   1.352       .  A
N130        N131   1.319       .  A
N130       Mn133   2.204       .  S
N131        C135   1.355       .  A
Mn132      Cl134   2.550       .  S
Mn133      Cl134   2.546       .  S
C135        C285   1.484       .  S
C136        C300   1.484       .  S
C137        C264   1.580       .  S
C137        C348   1.579       .  S
C137        C417   1.576       .  S
C137        C552   1.583       .  S
N138        N139   1.322       .  A
N138        N144   1.315       .  A
N138       Mn167   2.213       .  S
N139        C146   1.357       .  A
N140        N142   1.314       .  A
N140        N141   1.317       .  A
N140       Mn156   2.176   1_565  S
N141        C147   1.348       .  A
N142        N143   1.318       .  A
N142       Mn167   2.195   1_565  S
N143        C147   1.354       .  A
N144        N145   1.317       .  A
N144       Mn156   2.188       .  S
N145        C146   1.350       .  A
C146        C357   1.484       .  S
C147        C216   1.475       .  S
N148        N154   1.315       .  A
N148        N149   1.321       .  A
N148       Mn178   2.206   1_565  S
N149        C157   1.354       .  A
N150        N151   1.319       .  A
N150        N152   1.312       .  A
N150       Mn156   2.188       .  S
N151        C158   1.352       .  A
N152        N153   1.319       .  A
N152       Mn178   2.195       .  S
N153        C158   1.355       .  A
N154        N155   1.320       .  A
N154       Mn156   2.194   1_565  S
N155        C157   1.350       .  A
Mn156      Cl180   2.532       .  S
C157        C237   1.469       .  S
C158        C252   1.483       .  S
N159        N160   1.323       .  A
N159        N165   1.317       .  A
N159       Mn167   2.214   1_465  S
N160        C168   1.354       .  A
N161        N163   1.314       .  A
N161        N162   1.317       .  A
N161       Mn179   2.180       .  S
N162        C169   1.349       .  A
N163        N164   1.320       .  A
N163       Mn167   2.200   1_455  S
N164        C169   1.354       .  A
N165        N166   1.320       .  A
N165       Mn179   2.207   1_565  S
N166        C168   1.352       .  A
Mn167      Cl180   2.549       .  S
C168        C261   1.475       .  S
C169        C189   1.473       .  S
N170        N171   1.319       .  A
N170        N176   1.316       .  A
N170       Mn178   2.198   1_455  S
N171        C181   1.351       .  A
N172        N173   1.317       .  A
N172        N174   1.314       .  A
N172       Mn179   2.183   1_565  S
N173        C182   1.350       .  A
N174        N175   1.319       .  A
N174       Mn178   2.199   1_465  S
N175        C182   1.354       .  A
N176        N177   1.321       .  A
N176       Mn179   2.207       .  S
N177        C181   1.353       .  A
Mn178      Cl180   2.547       .  S
Mn179      Cl180   2.538   1_455  S
C181        C204   1.468       .  S
C182        C228   1.475       .  S
C183        C240   1.576       .  S
C183        C336   1.591       .  S
C183        C405   1.583       .  S
C183        C528   1.590       .  S
C184        C201   1.579       .  S
C184        C288   1.580       .  S
C184        C384   1.577       .  S
C184        C564   1.587       .  S
C185        C249   1.571       .  S
C185        C276   1.591       .  S
C185        C456   1.580       .  S
C185        C501   1.594       .  S
C186        C225   1.570       .  S
C186        C297   1.582       .  S
C186        C396   1.566       .  S
C186        C516   1.591       .  S
C187        C192   1.559       .  S
C187        C321   1.586       .  S
C187        C444   1.577       .  S
C187        C492   1.591       .  S
C188        C213   1.567       .  S
C188        C312   1.576       .  S
C188        C432   1.564       .  S
C188        C480   1.571       .  S
C189        C190   1.396       .  A
C189        C194   1.405       .  A
C190        C191   1.400       .  A
C190        H199   1.083       .  S
C191        C192   1.436       .  A
C191        S195   1.813       .  S
C192        C193   1.418       .  A
C193        C194   1.393       .  A
C193        H200   1.075       .  S
C194        S196   1.800       .  S
S195        H198   1.407       .  S
S196        H197   1.408       .  S
C201        C202   1.425       .  A
C201        C206   1.442       .  A
C202        C203   1.391       .  A
C202        H211   1.075       .  S
C203        C204   1.399       .  A
C203        S207   1.806       .  S
C204        C205   1.395       .  A
C205        C206   1.406       .  A
C205        H212   1.084       .  S
C206        S208   1.810       .  S
S207        H210   1.404       .  S
S208        H209   1.391       .  S
C213        C214   1.414       .  A
C213        C218   1.440       .  A
C214        C215   1.391       .  A
C214        H223   1.081       .  S
C215        C216   1.410       .  A
C215        S219   1.802       .  S
C216        C217   1.396       .  A
C217        C218   1.398       .  A
C217        H224   1.082       .  S
C218        S220   1.816       .  S
S219        H222   1.408       .  S
S220        H221   1.407       .  S
C225        C226   1.418       .  A
C225        C230   1.435       .  A
C226        C227   1.394       .  A
C226        H235   1.077       .  S
C227        C228   1.407       .  A
C227        S231   1.804       .  S
C228        C229   1.397       .  A
C229        C230   1.401       .  A
C229        H236   1.082       .  S
C230        S232   1.806       .  S
S231        H234   1.407       .  S
S232        H233   1.407       .  S
C237        C238   1.395       .  A
C237        C242   1.399       .  A
C238        C239   1.407       .  A
C238        H247   1.084       .  S
C239        C240   1.443       .  A
C239        S243   1.808       .  S
C240        C241   1.423       .  A
C241        C242   1.392       .  A
C241        H248   1.072       .  S
C242        S244   1.808       .  S
S243        H246   1.397       .  S
S244        H245   1.405       .  S
C249        C250   1.424       .  A
C249        C254   1.443       .  A
C250        C251   1.396       .  A
C250        H259   1.083       .  S
C251        C252   1.409       .  A
C251        S255   1.801       .  S
C252        C253   1.398       .  A
C253        C254   1.401       .  A
C253        H260   1.084       .  S
C254        S256   1.809       .  S
S255        H258   1.408       .  S
S256        H257   1.396       .  S
C261        C262   1.393       .  A
C261        C266   1.403       .  A
C262        C263   1.404       .  A
C262        H271   1.083       .  S
C263        C264   1.444       .  A
C263        S267   1.815       .  S
C264        C265   1.418       .  A
C265        C266   1.401       .  A
C265        H272   1.076       .  S
C266        S268   1.803       .  S
S267        H270   1.406       .  S
S268        H269   1.406       .  S
C273        C274   1.389       .  A
C273        C278   1.404       .  A
C274        C275   1.400       .  A
C274        H283   1.086       .  S
C275        C276   1.450       .  A
C275        S279   1.807       .  S
C276        C277   1.426       .  A
C277        C278   1.405       .  A
C277        H284   1.083       .  S
C278        S280   1.804       .  S
S279        H282   1.397       .  S
S280        H281   1.405       .  S
C285        C286   1.395       .  A
C285        C290   1.408       .  A
C286        C287   1.396       .  A
C286        H295   1.084       .  S
C287        C288   1.443       .  A
C287        S291   1.811       .  S
C288        C289   1.421       .  A
C289        C290   1.401       .  A
C289        H296   1.077       .  S
C290        S292   1.803       .  S
S291        H294   1.394       .  S
S292        H293   1.408       .  S
C297        C298   1.420       .  A
C297        C302   1.444       .  A
C298        C299   1.393       .  A
C298        H307   1.083       .  S
C299        C300   1.407       .  A
C299        S303   1.802       .  S
C300        C301   1.398       .  A
C301        C302   1.407       .  A
C301        H308   1.082       .  S
C302        S304   1.814       .  S
S303        H306   1.407       .  S
S304        H305   1.407       .  S
C309        C310   1.401       .  A
C309        C314   1.407       .  A
C310        C311   1.405       .  A
C310        H319   1.082       .  S
C311        C312   1.437       .  A
C311        S315   1.812       .  S
C312        C313   1.418       .  A
C313        C314   1.393       .  A
C313        H320   1.076       .  S
C314        S316   1.802       .  S
S315        H318   1.407       .  S
S316        H317   1.408       .  S
C321        C322   1.425       .  A
C321        C326   1.442       .  A
C322        C323   1.401       .  A
C322        H331   1.075       .  S
C323        C324   1.406       .  A
C323        S327   1.804       .  S
C324        C325   1.397       .  A
C325        C326   1.400       .  A
C325        H332   1.084       .  S
C326        S328   1.812       .  S
S327        H330   1.407       .  S
S328        H329   1.392       .  S
C333        C334   1.397       .  A
C333        C338   1.408       .  A
C334        C335   1.400       .  A
C334        H343   1.083       .  S
C335        C336   1.437       .  A
C335        S339   1.808       .  S
C336        C337   1.424       .  A
C337        C338   1.403       .  A
C337        H344   1.077       .  S
C338        S340   1.804       .  S
S339        H342   1.407       .  S
S340        H341   1.407       .  S
C345        C346   1.395       .  A
C345        C350   1.407       .  A
C346        C347   1.403       .  A
C346        H355   1.082       .  S
C347        C348   1.439       .  A
C347        S351   1.811       .  S
C348        C349   1.421       .  A
C349        C350   1.403       .  A
C349        H356   1.076       .  S
C350        S352   1.804       .  S
S351        H354   1.406       .  S
S352        H353   1.407       .  S
C357        C358   1.396       .  A
C357        C362   1.410       .  A
C358        C359   1.404       .  A
C358        H367   1.082       .  S
C359        C360   1.443       .  A
C359        S363   1.814       .  S
C360        C361   1.414       .  A
C361        C362   1.394       .  A
C361        H368   1.080       .  S
C362        S364   1.802       .  S
S363        H366   1.407       .  S
S364        H365   1.408       .  S
C369        C370   1.416       .  A
C369        C374   1.441       .  A
C370        C371   1.394       .  A
C370        H379   1.079       .  S
C371        C372   1.409       .  A
C371        S375   1.802       .  S
C372        C373   1.398       .  A
C373        C374   1.406       .  A
C373        H380   1.082       .  S
C374        S376   1.815       .  S
S375        H378   1.408       .  S
S376        H377   1.406       .  S
C381        C382   1.397       .  A
C381        C386   1.408       .  A
C382        C383   1.399       .  A
C382        H391   1.083       .  S
C383        C384   1.437       .  A
C383        S387   1.813       .  S
C384        C385   1.421       .  A
C385        C386   1.399       .  A
C385        H392   1.077       .  S
C386        S388   1.804       .  S
S387        H390   1.407       .  S
S388        H389   1.407       .  S
C393        C394   1.393       .  A
C393        C398   1.405       .  A
C394        C395   1.402       .  A
C394        H403   1.083       .  S
C395        C396   1.445       .  A
C395        S399   1.813       .  S
C396        C397   1.420       .  A
C397        C398   1.392       .  A
C397        H404   1.083       .  S
C398        S400   1.803       .  S
S399        H402   1.407       .  S
S400        H401   1.408       .  S
C405        C406   1.423       .  A
C405        C410   1.442       .  A
C406        C407   1.395       .  A
C406        H415   1.083       .  S
C407        C408   1.408       .  A
C407        S411   1.802       .  S
C408        C409   1.398       .  A
C409        C410   1.402       .  A
C409        H416   1.084       .  S
C410        S412   1.806       .  S
S411        H414   1.408       .  S
S412        H413   1.398       .  S
C417        C418   1.422       .  A
C417        C422   1.437       .  A
C418        C419   1.402       .  A
C418        H427   1.076       .  S
C419        C420   1.406       .  A
C419        S423   1.804       .  S
C420        C421   1.395       .  A
C421        C422   1.402       .  A
C421        H428   1.082       .  S
C422        S424   1.810       .  S
S423        H426   1.407       .  S
S424        H425   1.406       .  S
C429        C430   1.397       .  A
C429        C434   1.405       .  A
C430        C431   1.400       .  A
C430        H439   1.082       .  S
C431        C432   1.434       .  A
C431        S435   1.811       .  S
C432        C433   1.419       .  A
C433        C434   1.393       .  A
C433        H440   1.077       .  S
C434        S436   1.805       .  S
S435        H438   1.406       .  S
S436        H437   1.408       .  S
C441        C442   1.393       .  A
C441        C446   1.404       .  A
C442        C443   1.401       .  A
C442        H451   1.086       .  S
C443        C444   1.451       .  A
C443        S447   1.814       .  S
C444        C445   1.420       .  A
C445        C446   1.392       .  A
C445        H452   1.084       .  S
C446        S448   1.799       .  S
S447        H450   1.395       .  S
S448        H449   1.408       .  S
C453        C454   1.394       .  A
C453        C458   1.399       .  A
C454        C455   1.409       .  A
C454        H463   1.083       .  S
C455        C456   1.438       .  A
C455        S459   1.806       .  S
C456        C457   1.424       .  A
C457        C458   1.391       .  A
C457        H464   1.075       .  S
C458        S460   1.808       .  S
S459        H462   1.406       .  S
S460        H461   1.404       .  S
C465        C466   1.397       .  A
C465        C470   1.408       .  A
C466        C467   1.403       .  A
C466        H475   1.082       .  S
C467        C468   1.435       .  A
C467        S471   1.811       .  S
C468        C469   1.417       .  A
C469        C470   1.393       .  A
C469        H476   1.077       .  S
C470        S472   1.804       .  S
S471        H474   1.406       .  S
S472        H473   1.408       .  S
C477        C478   1.401       .  A
C477        C482   1.405       .  A
C478        C479   1.402       .  A
C478        H487   1.082       .  S
C479        C480   1.431       .  A
C479        S483   1.810       .  S
C480        C481   1.423       .  A
C481        C482   1.397       .  A
C481        H488   1.076       .  S
C482        S484   1.804       .  S
S483        H486   1.406       .  S
S484        H485   1.407       .  S
C489        C490   1.396       .  A
C489        C494   1.409       .  A
C490        C491   1.403       .  A
C490        H499   1.082       .  S
C491        C492   1.436       .  A
C491        S495   1.804       .  S
C492        C493   1.424       .  A
C493        C494   1.401       .  A
C493        H500   1.078       .  S
C494        S496   1.803       .  S
S495        H498   1.407       .  S
S496        H497   1.407       .  S
C501        C502   1.422       .  A
C501        C506   1.439       .  A
C502        C503   1.406       .  A
C502        H511   1.077       .  S
C503        C504   1.410       .  A
C503        S507   1.803       .  S
C504        C505   1.394       .  A
C505        C506   1.399       .  A
C505        H512   1.083       .  S
C506        S508   1.806       .  S
S507        H510   1.407       .  S
S508        H509   1.407       .  S
C513        C514   1.397       .  A
C513        C518   1.408       .  A
C514        C515   1.403       .  A
C514        H523   1.082       .  S
C515        C516   1.435       .  A
C515        S519   1.807       .  S
C516        C517   1.423       .  A
C517        C518   1.399       .  A
C517        H524   1.078       .  S
C518        S520   1.800       .  S
S519        H522   1.406       .  S
S520        H521   1.407       .  S
C525        C526   1.397       .  A
C525        C530   1.399       .  A
C526        C527   1.409       .  A
C526        H535   1.084       .  S
C527        C528   1.443       .  A
C527        S531   1.810       .  S
C528        C529   1.426       .  A
C529        C530   1.393       .  A
C529        H536   1.074       .  S
C530        S532   1.807       .  S
S531        H534   1.393       .  S
S532        H533   1.405       .  S
C537        C538   1.397       .  A
C537        C542   1.409       .  A
C538        C539   1.401       .  A
C538        H547   1.082       .  S
C539        C540   1.435       .  A
C539        S543   1.810       .  S
C540        C541   1.419       .  A
C541        C542   1.399       .  A
C541        H548   1.077       .  S
C542        S544   1.804       .  S
S543        H546   1.407       .  S
S544        H545   1.407       .  S
C549        C550   1.392       .  A
C549        C554   1.405       .  A
C550        C551   1.404       .  A
C550        H559   1.084       .  S
C551        C552   1.446       .  A
C551        S555   1.814       .  S
C552        C553   1.418       .  A
C553        C554   1.403       .  A
C553        H560   1.075       .  S
C554        S556   1.805       .  S
S555        H558   1.407       .  S
S556        H557   1.405       .  S
C561        C562   1.395       .  A
C561        C566   1.400       .  A
C562        C563   1.408       .  A
C562        H571   1.084       .  S
C563        C564   1.444       .  A
C563        S567   1.809       .  S
C564        C565   1.424       .  A
C565        C566   1.394       .  A
C565        H572   1.074       .  S
C566        S568   1.806       .  S
S567        H570   1.393       .  S
S568        H569   1.403       .  S
