geometry optimzed in LAMMPS
_audit_creation_date              2020-11-30 
_audit_creation_method            'lammps2cif' 
_symmetry_space_group_name_H-M    'P1' 
_symmetry_Int_Tables_number       1 
_symmetry_cell_setting            triclinic 
loop_ 
_symmetry_equiv_pos_as_xyz 
  x,y,z 
_cell_length_a                    34.39746832 
_cell_length_b                    34.41753752524426 
_cell_length_c                    46.47544082099463 
_cell_angle_alpha                 89.78811544320754 
_cell_angle_beta                  89.82552570756863 
_cell_angle_gamma                 120.09796158756915 
loop_ 
_atom_site_label 
_atom_site_type_symbol 
_atom_site_fract_x 
_atom_site_fract_y 
_atom_site_fract_z 
_atom_site_charge 
C1          C  0.32528345  0.66260068  0.21868595     0.45800
H2          H  0.32529631  0.66050195  0.19481608    -0.03300
C3          C  0.32549647  0.66731204  0.27441329     0.45800
H4          H  0.32609183  0.66961873  0.29824703    -0.03300
C5          C  0.37244107  0.68472463  0.23163940    -0.17000
C6          C  0.30477595  0.69015452  0.22997466    -0.16700
C7          C  0.29931856  0.61659910  0.23363485    -0.17100
C8          C  0.37283001  0.68777577  0.26116840    -0.17100
C9          C  0.30398586  0.69195241  0.25951764    -0.16600
C10         C  0.29955144  0.61881567  0.26321500    -0.17000
O11         O  0.47000890  0.24937099  0.13899769    -0.57500
C12         C  0.39790505  0.20862537  0.06578367     0.75100
O13         O  0.33471123  0.12543405  0.14817965    -0.58700
C14         C  0.46939683  0.23348034  0.16369132     0.75100
C15         C  0.34133112  0.24570850  0.14149934     0.77500
Cd16       Cd  0.39011376  0.19932524  0.12779811     1.37500
O17         O  0.43219304  0.22017593  0.08123784    -0.57500
O18         O  0.38093537  0.26575510  0.13148207    -0.56300
C19         C  0.34572929  0.10299773  0.13200098     0.77400
O20         O  0.32515397  0.20441665  0.14691297    -0.58700
O21         O  0.36103126  0.19338194  0.07924469    -0.57200
O22         O  0.43182792  0.20149369  0.17192476    -0.57700
O23         O  0.37775110  0.12543690  0.11459096    -0.56300
O24         O  0.79273271  0.54029811  0.36737448    -0.57500
C25         C  0.81244387  0.61136533  0.44142517     0.75100
O26         O  0.88850045  0.68300669  0.36295882    -0.58700
C27         C  0.77608019  0.54048534  0.34316708     0.75100
C28         C  0.76358858  0.66133418  0.36794430     0.77500
Cd29       Cd  0.81611962  0.61867433  0.37919636     1.37500
O30         O  0.78547101  0.57907819  0.42581910    -0.57500
O31         O  0.74779693  0.62431298  0.38128848    -0.56300
C32         C  0.91095514  0.66307695  0.36461137     0.77400
O33         O  0.80394623  0.67864183  0.35945654    -0.58700
O34         O  0.84069743  0.64650999  0.42818444    -0.57200
O35         O  0.77891279  0.57706785  0.33547384    -0.57100
O36         O  0.88898790  0.62222368  0.37201392    -0.56300
O37         O  0.35978397  0.18488586  0.42697805    -0.57500
C38         C  0.46968028  0.24328247  0.34120898     0.75100
O39         O  0.33009299  0.13358092  0.35783025    -0.58700
C40         C  0.39540105  0.20973620  0.44065017     0.75100
C41         C  0.34489839  0.25447465  0.36932417     0.77500
Cd42       Cd  0.39099195  0.20488234  0.37838473     1.37500
O43         O  0.46824820  0.22419286  0.36479348    -0.57500
O44         O  0.37984259  0.26891099  0.38450578    -0.56300
C45         C  0.34613979  0.10960729  0.36639406     0.77400
O46         O  0.33149310  0.21674116  0.35746492    -0.58700
O47         O  0.43548702  0.24635666  0.33529027    -0.57200
O48         O  0.43035129  0.23251409  0.42540392    -0.57100
O49         O  0.38298669  0.13018976  0.37968515    -0.56300
O50         O  0.24905389  0.78965738  0.35810349    -0.57500
C51         C  0.19516911  0.80786655  0.43284222     0.75100
O52         O  0.21079472  0.89348545  0.35649375    -0.58700
C53         C  0.23693149  0.78148290  0.33210682     0.75100
C54         C  0.10494253  0.76701091  0.35943407     0.77500
Cd55       Cd  0.19931401  0.81893260  0.37094182     1.37500
O56         O  0.21532867  0.79324436  0.41732447    -0.57500
O57         O  0.12680720  0.74993023  0.37017690    -0.56300
C58         C  0.25209530  0.91504756  0.36281623     0.77400
O59         O  0.12756049  0.80830535  0.35292812    -0.58700
O60         O  0.17811994  0.82789126  0.41974716    -0.57200
O61         O  0.20732029  0.79061576  0.32403157    -0.57100
O62         O  0.26875616  0.89164397  0.37123942    -0.56300
O63         O  0.21639589  0.75653542  0.12924606    -0.57500
C64         C  0.19359991  0.80391012  0.05747652     0.75100
O65         O  0.12263835  0.80952902  0.13088522    -0.58700
C66         C  0.23310250  0.77164125  0.15367009     0.75100
C67         C  0.24798409  0.90868343  0.12676197     0.77500
Cd68       Cd  0.19429145  0.81297036  0.11932182     1.37500
O69         O  0.22050780  0.79847935  0.07312282    -0.57500
O70         O  0.25843084  0.88700364  0.10958568    -0.56300
C71         C  0.10104902  0.76792134  0.13634668     0.77400
O72         O  0.21326511  0.88555861  0.14208752    -0.58700
O73         O  0.16645494  0.81230554  0.07067029    -0.57200
O74         O  0.23275818  0.80652785  0.16182024    -0.57100
O75         O  0.12317656  0.74774730  0.13454480    -0.56300
O76         O  0.78761148  0.57843096  0.08154904    -0.57500
C77         C  0.77899084  0.54553521  0.16810773     0.75100
O78         O  0.88360985  0.68268190  0.14870253    -0.58700
C79         C  0.81495132  0.61140843  0.06609521     0.75100
C80         C  0.76386510  0.66443061  0.13227287     0.77500
Cd81       Cd  0.81489295  0.61968893  0.12785459     1.37500
O82         O  0.79894879  0.54516292  0.14530564    -0.57500
O83         O  0.74669243  0.62482795  0.12266854    -0.56300
C84         C  0.90842208  0.66660355  0.14198143     0.77400
O85         O  0.80424702  0.68273543  0.14061764    -0.58700
O86         O  0.77548583  0.57992107  0.17220829    -0.57200
O87         O  0.84110427  0.64697530  0.07934480    -0.57100
O88         O  0.88931850  0.62890261  0.12970778    -0.56300
O89         O  0.53070052  0.77459773  0.13327702    -0.57500
C90         C  0.60336526  0.79337833  0.06119694     0.75100
O91         O  0.66623817  0.86867379  0.14756575    -0.58700
C92         C  0.52944470  0.75940972  0.15824881     0.75100
C93         C  0.65841680  0.75223237  0.13269095     0.77500
Cd94       Cd  0.60973334  0.79878008  0.12329128     1.37500
O95         O  0.56967541  0.76982175  0.07713509    -0.57500
O96         O  0.61779890  0.73173355  0.12477311    -0.56300
C97         C  0.65186036  0.89311475  0.13716485     0.77400
O98         O  0.67584980  0.79391654  0.13719274    -0.58700
O99         O  0.63966945  0.81861333  0.07418960    -0.57200
O100        O  0.56533297  0.76172182  0.16700487    -0.57100
O101        O  0.61782156  0.87349783  0.12119688    -0.56300
O102        O  0.21812600  0.46418263  0.36407256    -0.57500
C103        C  0.19076886  0.39001367  0.43764360     0.75100
O104        O  0.11200764  0.31829394  0.35860616    -0.58700
C105        C  0.22469450  0.46134519  0.33756623     0.75100
C106        C  0.23867502  0.34267560  0.36576917     0.77500
Cd107      Cd  0.18393290  0.38319860  0.37532945     1.37500
O108        O  0.19345332  0.42170468  0.42228798    -0.57500
O109        O  0.25421975  0.38155618  0.37632771    -0.56300
C110        C  0.08710860  0.33354308  0.36654531     0.77400
O111        O  0.19773185  0.32307962  0.35850669    -0.58700
O112        O  0.18527605  0.35584143  0.42412923    -0.57200
O113        O  0.21188752  0.42229787  0.32827171    -0.57100
O114        O  0.10738701  0.37244828  0.37724747    -0.56300
O115        O  0.78752665  0.20963457  0.33353975    -0.57500
C116        C  0.79073346  0.17532887  0.44012821     0.75100
O117        O  0.78865665  0.10332002  0.36528599    -0.58700
C118        C  0.75766112  0.21784482  0.34263551     0.75100
C119        C  0.89174915  0.23112611  0.36953636     0.77500
Cd120      Cd  0.79547200  0.17596780  0.37811313     1.37500
O121        O  0.77981387  0.19920875  0.42522717    -0.57500
O122        O  0.86940036  0.24238422  0.38558916    -0.56300
C123        C  0.74621744  0.08142506  0.36437804     0.77400
O124        O  0.86924605  0.19400789  0.35664248    -0.58700
O125        O  0.80176522  0.15082605  0.42626000    -0.57200
O126        O  0.74471658  0.20616407  0.36833981    -0.57100
O127        O  0.72680367  0.10389308  0.36857895    -0.56300
O128        O  0.52398706  0.74244056  0.36278582    -0.57500
C129        C  0.60223478  0.79333519  0.43600078     0.75100
O130        O  0.66784886  0.78387770  0.35462586    -0.58700
C131        C  0.52690109  0.75405879  0.33665436     0.75100
C132        C  0.64654282  0.88700940  0.36382795     0.77500
Cd133      Cd  0.60486233  0.79162393  0.37367817     1.37500
O134        O  0.56647759  0.77077272  0.42171978    -0.57500
O135        O  0.60871825  0.86457354  0.37611553    -0.56300
C136        C  0.65284086  0.74375461  0.36283809     0.77400
O137        O  0.66447115  0.86472535  0.35516066    -0.58700
O138        O  0.63781088  0.81422483  0.42130362    -0.57200
O139        O  0.56569524  0.78271930  0.32774328    -0.57100
O140        O  0.61469323  0.72515001  0.37491793    -0.56300
O141        O  0.76926631  0.19196979  0.08066102    -0.57500
C142        C  0.76235777  0.22374894  0.16393770     0.75100
O143        O  0.79003466  0.11172904  0.14863164    -0.58700
C144        C  0.79178624  0.18027347  0.06504343     0.75100
C145        C  0.89652916  0.23495469  0.13555832     0.77500
Cd146      Cd  0.79973355  0.18229022  0.12737649     1.37500
O147        O  0.77068224  0.19435497  0.17376096    -0.57500
O148        O  0.87371292  0.25214889  0.12672836    -0.56300
C149        C  0.75044827  0.08700368  0.13954419     0.77400
O150        O  0.87424792  0.19354012  0.14159829    -0.58700
O151        O  0.77046744  0.23300945  0.13747992    -0.57200
O152        O  0.81726015  0.16986925  0.07839943    -0.57100
O153        O  0.73346506  0.10693581  0.12611744    -0.56300
O154        O  0.24057636  0.46115676  0.13651555    -0.57500
C155        C  0.19599638  0.38789967  0.06248440     0.75100
O156        O  0.19976471  0.32076551  0.14467077    -0.58700
C157        C  0.22643833  0.45894034  0.16195322     0.75100
C158        C  0.09192515  0.33660033  0.13171247     0.77500
Cd159      Cd  0.18880808  0.38160476  0.12463193     1.37500
O160        O  0.19975054  0.42017987  0.07760061    -0.57500
O161        O  0.11365041  0.37138004  0.11631097    -0.56300
C162        C  0.24128753  0.33974637  0.13858740     0.77400
O163        O  0.11525685  0.32238860  0.14406477    -0.58700
O164        O  0.18900046  0.35314379  0.07618039    -0.57200
O165        O  0.19420257  0.42134534  0.16992918    -0.57100
O166        O  0.25791726  0.37794582  0.12681183    -0.56300
C167        C  0.67672892  0.34132724  0.22538158     0.45800
H168        H  0.67923368  0.34347528  0.20159655    -0.03300
C169        C  0.67201771  0.33599107  0.28115285     0.45800
H170        H  0.66977549  0.33440416  0.30501413    -0.03300
C171        C  0.70242554  0.38735313  0.24051869    -0.17000
C172        C  0.62805834  0.31908314  0.23674507    -0.16700
C173        C  0.69512266  0.31234978  0.23816187    -0.17100
C174        C  0.69962006  0.38425392  0.26989590    -0.17100
C175        C  0.62587202  0.31659465  0.26641739    -0.16600
C176        C  0.69419738  0.31073513  0.26790678    -0.17000
C177        C  0.71262653  0.22131079  0.20398415    -0.08900
C178        C  0.74417040  0.24607185  0.18231971     0.07300
C179        C  0.75693163  0.29158687  0.17818463    -0.02600
C180        C  0.73979170  0.31178158  0.19627319    -0.07100
C181        C  0.70987646  0.28773429  0.21875187     0.06400
C182        C  0.69432820  0.24133661  0.22149739    -0.02100
Br183      Br  0.64439935  0.20270940  0.24586631    -0.01800
H184        H  0.70086227  0.18580766  0.20655925     0.10400
H185        H  0.75089958  0.34700390  0.19315376     0.08400
Br186      Br  0.79951333  0.32902713  0.14932101    -0.02200
C187        C  0.96870058  0.30474717  0.12459229    -0.08900
C188        C  0.94649633  0.26184333  0.13738344     0.07300
C189        C  0.97284514  0.24552111  0.15018768    -0.02600
C190        C  0.01985558  0.27099883  0.14866545    -0.07100
C191        C  0.04201673  0.31297769  0.13464431     0.06400
C192        C  0.01564694  0.33029437  0.12315800    -0.02100
Br193      Br  0.04047995  0.38842967  0.10522259    -0.01800
H194        H  0.94940893  0.31840585  0.11499840     0.10400
H195        H  0.03918226  0.25729661  0.15815017     0.08400
Br196      Br  0.94764838  0.18912132  0.17034284    -0.02200
C197        C  0.76685918  0.26622211  0.30062404    -0.08900
C198        C  0.74035016  0.24098895  0.32408731     0.07300
C199        C  0.69949808  0.24015277  0.32939698    -0.02600
C200        C  0.68565635  0.26288459  0.31077294    -0.07100
C201        C  0.71150693  0.28716190  0.28671084     0.06400
C202        C  0.75368298  0.29006752  0.28258596    -0.02100
Br203      Br  0.79880877  0.33078545  0.25627246    -0.01800
H204        H  0.79932106  0.26910078  0.29692770     0.10400
H205        H  0.65438657  0.26160782  0.31546271     0.08400
Br206      Br  0.66032312  0.20855375  0.36121539    -0.02200
C207        C  0.76109414  0.18621488  0.48652347    -0.08900
C208        C  0.79076873  0.17614334  0.47197721     0.07300
C209        C  0.82032934  0.16765084  0.48822635    -0.02600
C210        C  0.81941586  0.16901005  0.01822048    -0.07100
C211        C  0.78970640  0.17889996  0.03300768     0.06400
C212        C  0.76000909  0.18740542  0.01667925    -0.02100
Br213      Br  0.71654030  0.20004452  0.03352965    -0.01800
H214        H  0.73811919  0.19273027  0.47435296     0.10400
H215        H  0.84285396  0.16276387  0.03003610     0.08400
Br216      Br  0.86508341  0.15697297  0.47114246    -0.02200
C217        C  0.67437128  0.00899193  0.36777799    -0.08900
C218        C  0.72021987  0.03198368  0.36037502     0.07300
C219        C  0.74015997  0.00673426  0.35142053    -0.02600
C220        C  0.71494714  0.95976264  0.35173724    -0.07100
C221        C  0.66975278  0.93670909  0.36076939     0.06400
C222        C  0.64913881  0.96207183  0.36809753    -0.02100
Br223      Br  0.58705448  0.93582730  0.37916495    -0.01800
H224        H  0.65813366  0.02758260  0.37434544     0.10400
H225        H  0.73135929  0.94118608  0.34552125     0.08400
Br226      Br  0.80134088  0.03356915  0.33829038    -0.02200
C227        C  0.18736236  0.41982113  0.01640960    -0.08900
C228        C  0.19798440  0.39020446  0.03054668     0.07300
C229        C  0.20837115  0.36241920  0.01375252    -0.02600
C230        C  0.20604382  0.36338504  0.48371240    -0.07100
C231        C  0.19419549  0.39210268  0.46955215     0.06400
C232        C  0.18535674  0.42103297  0.48632209    -0.02100
Br233      Br  0.16758984  0.46109772  0.47006367    -0.01800
H234        H  0.17927284  0.44141158  0.02886418     0.10400
H235        H  0.21390689  0.34158053  0.47131584     0.08400
Br236      Br  0.22809399  0.32384251  0.03003406    -0.02200
C237        C  0.01284553  0.32754230  0.37491609    -0.08900
C238        C  0.03710881  0.30753759  0.36459130     0.07300
C239        C  0.01271795  0.26288541  0.35436398    -0.02600
C240        C  0.96559583  0.23941438  0.35537365    -0.07100
C241        C  0.94150899  0.25898300  0.36670933     0.06400
C242        C  0.96588150  0.30399045  0.37620051    -0.02100
Br243      Br  0.93806711  0.33622399  0.39118712    -0.01800
H244        H  0.03052576  0.36176235  0.38268527     0.10400
H245        H  0.94771430  0.20499944  0.34795059     0.08400
Br246      Br  0.04070279  0.23075304  0.33955434    -0.02200
C247        C  0.72068786  0.96492527  0.14952056    -0.08900
C248        C  0.67498625  0.94225315  0.14206891     0.07300
C249        C  0.65369286  0.96764381  0.13712649    -0.02600
C250        C  0.67872959  0.01449829  0.13783115    -0.07100
C251        C  0.72510229  0.03740473  0.14335435     0.06400
C252        C  0.74589241  0.01194658  0.15007003    -0.02100
Br253      Br  0.80894307  0.03832749  0.15789786    -0.01800
H254        H  0.73761296  0.94606199  0.15353876     0.10400
H255        H  0.66178499  0.03318417  0.13328085     0.08400
Br256      Br  0.59060603  0.94106082  0.12928377    -0.02200
C257        C  0.56287258  0.76603355  0.48330585    -0.08900
C258        C  0.60257818  0.79460058  0.46802358     0.07300
C259        C  0.64182764  0.82293901  0.48384949    -0.02600
C260        C  0.64078315  0.82139185  0.01387173    -0.07100
C261        C  0.60134773  0.79249698  0.02920313     0.06400
C262        C  0.56182173  0.76470673  0.01347625    -0.02100
Br263      Br  0.50512949  0.72386740  0.03124164    -0.01800
H264        H  0.53232813  0.74414824  0.47172382     0.10400
H265        H  0.67142833  0.84341714  0.02531963     0.08400
Br266      Br  0.69839905  0.86574078  0.46666654    -0.02200
C267        C  0.70007094  0.45234520  0.21872308    -0.08900
C268        C  0.72465154  0.43076793  0.22448203     0.07300
C269        C  0.76907758  0.45026026  0.21415937    -0.02600
C270        C  0.78638229  0.48772768  0.19581128    -0.07100
C271        C  0.76068912  0.50768327  0.18871206     0.06400
C272        C  0.71772677  0.49058611  0.20112654    -0.02100
Br273      Br  0.67993333  0.51545425  0.19288485    -0.01800
H274        H  0.66654094  0.43844546  0.22682683     0.10400
H275        H  0.82003137  0.50162204  0.18741896     0.08400
Br276      Br  0.80846639  0.42915727  0.22582360    -0.02200
C277        C  0.69184479  0.66291604  0.14050844    -0.08900
C278        C  0.73780817  0.68777053  0.13369040     0.07300
C279        C  0.75762136  0.73414619  0.12792132    -0.02600
C280        C  0.73129013  0.75453742  0.12869144    -0.07100
C281        C  0.68513175  0.72957921  0.13498684     0.06400
C282        C  0.66556745  0.68342949  0.14152789    -0.02100
Br283      Br  0.60407777  0.64721994  0.15363499    -0.01800
H284        H  0.67638504  0.62741324  0.14545889     0.10400
H285        H  0.74677391  0.78989833  0.12333135     0.08400
Br286      Br  0.81941523  0.77079061  0.11648044    -0.02200
C287        C  0.03012507  0.69603487  0.14407534    -0.08900
C288        C  0.05225335  0.74318499  0.14301903     0.07300
C289        C  0.02651335  0.76456828  0.14635686    -0.02600
C290        C  0.97964208  0.73869169  0.14799618    -0.07100
C291        C  0.95753541  0.69167819  0.14635293     0.06400
C292        C  0.98339294  0.67027547  0.14578206    -0.02100
Br293      Br  0.95749561  0.60612657  0.14718019    -0.01800
H294        H  0.04910208  0.67876703  0.14250688     0.10400
H295        H  0.96033227  0.75565841  0.14908151     0.08400
Br296      Br  0.05217840  0.82858400  0.14810590    -0.02200
C297        C  0.15773566  0.80063702  0.01062893    -0.08900
C298        C  0.19354810  0.80132346  0.02555736     0.07300
C299        C  0.22852474  0.80119758  0.00946819    -0.02600
C300        C  0.22759193  0.80185618  0.47932490    -0.07100
C301        C  0.19260073  0.80295654  0.46457553     0.06400
C302        C  0.15681648  0.80118988  0.48059752    -0.02100
Br303      Br  0.10477371  0.79799550  0.46304719    -0.01800
H304        H  0.13006508  0.79979467  0.02237564     0.10400
H305        H  0.25524344  0.80303778  0.46734334     0.08400
Br306      Br  0.27993200  0.80261531  0.02669072    -0.02200
C307        C  0.52097921  0.29997817  0.30527221    -0.08900
C308        C  0.50893097  0.26095968  0.32152209     0.07300
C309        C  0.53410902  0.23911639  0.31808022    -0.02600
C310        C  0.57073285  0.25681102  0.29909876    -0.07100
C311        C  0.58386951  0.29672976  0.28383793     0.06400
C312        C  0.55838903  0.31816310  0.28679362    -0.02100
Br313      Br  0.57431936  0.37306824  0.26688924    -0.01800
H314        H  0.50189559  0.31704804  0.30748364     0.10400
H315        H  0.58848617  0.23873289  0.29576801     0.08400
Br316      Br  0.51915873  0.18394384  0.33751692    -0.02200
C317        C  0.27924640  0.25942124  0.35124566    -0.08900
C318        C  0.32020677  0.27949685  0.36622469     0.07300
C319        C  0.33533569  0.32207507  0.37881669    -0.02600
C320        C  0.30876585  0.34216378  0.37735983    -0.07100
C321        C  0.26687546  0.32120885  0.36357296     0.06400
C322        C  0.25268154  0.27969330  0.34974115    -0.02100
Br323      Br  0.19783081  0.24846356  0.32831310    -0.01800
H324        H  0.26719847  0.22717388  0.34100071     0.10400
H325        H  0.32074273  0.37421377  0.38784994     0.08400
Br326      Br  0.39140701  0.35540298  0.39881106    -0.02200
C327        C  0.34189698  0.03664627  0.37582065    -0.08900
C328        C  0.32321326  0.06011333  0.36237297     0.07300
C329        C  0.28255350  0.03528070  0.34709198    -0.02600
C330        C  0.26091276  0.98825593  0.34674722    -0.07100
C331        C  0.27876177  0.96484763  0.36129993     0.06400
C332        C  0.32030293  0.98982869  0.37559291    -0.02100
Br333      Br  0.34869671  0.96322558  0.39724254    -0.01800
H334        H  0.37309282  0.05475088  0.38758471     0.10400
H335        H  0.22936979  0.96984101  0.33538848     0.08400
Br336      Br  0.25395900  0.06253972  0.32647185    -0.02200
C337        C  0.77166826  0.47035435  0.32601770    -0.08900
C338        C  0.75518506  0.50024030  0.32479242     0.07300
C339        C  0.71916996  0.49076916  0.30618230    -0.02600
C340        C  0.70092543  0.45230820  0.28910407    -0.07100
C341        C  0.71879596  0.42357517  0.28936735     0.06400
C342        C  0.75400457  0.43248682  0.30843439    -0.02100
Br343      Br  0.78048181  0.39531374  0.31104094    -0.01800
H344        H  0.79906772  0.47696742  0.34024172     0.10400
H345        H  0.67255691  0.44473237  0.27588246     0.08400
Br346      Br  0.69173549  0.52744004  0.30391305    -0.02200
C347        C  0.85166746  0.63876878  0.48790228    -0.08900
C348        C  0.81223574  0.60876338  0.47332111     0.07300
C349        C  0.77435250  0.57787784  0.48962961    -0.02600
C350        C  0.77642418  0.57838549  0.01976579    -0.07100
C351        C  0.81558465  0.60927876  0.03426370     0.06400
C352        C  0.85384096  0.63910199  0.01789415    -0.02100
Br353      Br  0.91102970  0.67993338  0.03469508    -0.01800
H354        H  0.88142212  0.66209218  0.47585864     0.10400
H355        H  0.74671476  0.55532555  0.03194178     0.08400
Br356      Br  0.71787298  0.53604811  0.47258419    -0.02200
C357        C  0.98164398  0.73248541  0.35062954    -0.08900
C358        C  0.96032023  0.68714474  0.35923713     0.07300
C359        C  0.98726334  0.66741924  0.36422316    -0.02600
C360        C  0.03404875  0.69383149  0.36268499    -0.07100
C361        C  0.05541696  0.73989762  0.35607761     0.06400
C362        C  0.02849198  0.75880179  0.34882456    -0.02100
Br363      Br  0.05248492  0.82038011  0.33729040    -0.01800
H364        H  0.96180333  0.74817530  0.34600040     0.10400
H365        H  0.05388680  0.67823864  0.36761749     0.08400
Br366      Br  0.96376813  0.60536570  0.37432798    -0.02200
C367        C  0.72681117  0.74807652  0.35735287    -0.08900
C368        C  0.67989810  0.72124085  0.36007032     0.07300
C369        C  0.66085199  0.67421385  0.36233325    -0.02600
C370        C  0.68880924  0.65559655  0.36408744    -0.07100
C371        C  0.73586866  0.68270997  0.36304414     0.06400
C372        C  0.75477348  0.72942796  0.35869473    -0.02100
Br373      Br  0.81836427  0.77050900  0.35646991    -0.01800
H374        H  0.74217002  0.78420317  0.35533991     0.10400
H375        H  0.67351774  0.61952482  0.36647878     0.08400
Br376      Br  0.59715462  0.63322912  0.36222491    -0.02200
C377        C  0.55348567  0.25285864  0.22342099    -0.08900
C378        C  0.58796660  0.29698369  0.21723526     0.07300
C379        C  0.58392996  0.31772564  0.19192491    -0.02600
C380        C  0.54568398  0.29570529  0.17481505    -0.07100
C381        C  0.51024277  0.25288513  0.18195388     0.06400
C382        C  0.51479778  0.23098949  0.20640847    -0.02100
Br383      Br  0.47069301  0.17086071  0.21744461    -0.01800
H384        H  0.55678262  0.23475000  0.24140477     0.10400
H385        H  0.54325120  0.31299739  0.15597684     0.08400
Br386      Br  0.62713723  0.37650828  0.17887553    -0.02200
C387        C  0.27175709  0.97983745  0.15344764    -0.08900
C388        C  0.27446746  0.95832574  0.12848719     0.07300
C389        C  0.30159106  0.98493613  0.10531861    -0.02600
C390        C  0.32484722  0.03163029  0.10745471    -0.07100
C391        C  0.32182983  0.05324958  0.13218960     0.06400
C392        C  0.29527631  0.02679048  0.15557773    -0.02100
Br393      Br  0.29109728  0.05214204  0.19141315    -0.01800
H394        H  0.25147201  0.96002016  0.17154565     0.10400
H395        H  0.34466328  0.05124755  0.08915220     0.08400
Br396      Br  0.30658782  0.96069526  0.06917334    -0.02200
C397        C  0.35849187  0.19526883  0.01920019    -0.08900
C398        C  0.39945079  0.21162170  0.03377392     0.07300
C399        C  0.43953170  0.22954806  0.01728049    -0.02600
C400        C  0.43741295  0.22920685  0.48709717    -0.07100
C401        C  0.39613920  0.21145249  0.47263727     0.06400
C402        C  0.35637332  0.19512244  0.48921263    -0.02100
Br403      Br  0.29780864  0.17396318  0.47300749    -0.01800
H404        H  0.32732052  0.18212760  0.03119721     0.10400
H405        H  0.46838751  0.24247795  0.47486474     0.08400
Br406      Br  0.49826889  0.25541945  0.03402212    -0.02200
C407        C  0.33842530  0.31640177  0.14153970    -0.08900
C408        C  0.31554050  0.26953064  0.14529648     0.07300
C409        C  0.26851470  0.24700825  0.15010542    -0.02600
C410        C  0.24560001  0.27107769  0.14930737    -0.07100
C411        C  0.26820301  0.31746611  0.14359696     0.06400
C412        C  0.31554159  0.34040303  0.14069941    -0.02100
Br413      Br  0.35176728  0.40431919  0.13537573    -0.01800
H414        H  0.37452904  0.33465643  0.13843718     0.10400
H415        H  0.20940259  0.25283174  0.15193279     0.08400
Br416      Br  0.23231571  0.18328134  0.15600397    -0.02200
C417        C  0.28637506  0.77728463  0.19127325    -0.08900
C418        C  0.25238514  0.75029211  0.17187212     0.07300
C419        C  0.23736259  0.70384963  0.17087343    -0.02600
C420        C  0.25592554  0.68551151  0.18947532    -0.07100
C421        C  0.28841888  0.71227032  0.20978214     0.06400
C422        C  0.30472713  0.75889671  0.20988491    -0.02100
Br423      Br  0.35400887  0.80007083  0.23308186    -0.01800
H424        H  0.29917169  0.81316534  0.19178437     0.10400
H425        H  0.24349521  0.64968684  0.18895586     0.08400
Br426      Br  0.18917857  0.66284991  0.14660217    -0.02200
C427        C  0.41846617  0.73443226  0.19190933    -0.08900
C428        C  0.41235581  0.70220755  0.21268853     0.07300
C429        C  0.44308528  0.68664761  0.21409932    -0.02600
C430        C  0.48115614  0.70598665  0.19631269    -0.07100
C431        C  0.48837580  0.73967179  0.17624690     0.06400
C432        C  0.45612797  0.75347532  0.17388072    -0.02100
Br433      Br  0.46238694  0.79999751  0.14802225    -0.01800
H434        H  0.39439064  0.74590392  0.19033355     0.10400
H435        H  0.50473305  0.69389577  0.19772668     0.08400
Br436      Br  0.43250362  0.63648240  0.23778470    -0.02200
C437        C  0.31500488  0.74790356  0.29661349    -0.08900
C438        C  0.28629299  0.71617004  0.27655773     0.07300
C439        C  0.24151461  0.70697243  0.27447044    -0.02600
C440        C  0.22660594  0.72968731  0.29216800    -0.07100
C441        C  0.25526638  0.76106906  0.31240448     0.06400
C442        C  0.30016127  0.77081370  0.31412587    -0.02100
Br443      Br  0.34353046  0.81713268  0.33846228    -0.01800
H444        H  0.34955443  0.75553331  0.29826071     0.10400
H445        H  0.19184534  0.72145194  0.29089904     0.08400
Br446      Br  0.19746211  0.66037351  0.25069350    -0.02200
C447        C  0.41372746  0.67780381  0.30168000    -0.08900
C448        C  0.41326689  0.70582621  0.27981860     0.07300
C449        C  0.44989557  0.75006446  0.27746274    -0.02600
C450        C  0.48673812  0.76446905  0.29578784    -0.07100
C451        C  0.48735125  0.73631775  0.31749878     0.06400
C452        C  0.45006251  0.69257602  0.32049856    -0.02100
Br453      Br  0.44720441  0.65061366  0.34891509    -0.01800
H454        H  0.38564806  0.64385803  0.30397562     0.10400
H455        H  0.51450321  0.79858740  0.29369693     0.08400
Br456      Br  0.45027280  0.79422823  0.25218624    -0.02200
C457        C  0.21717976  0.50447594  0.19978191    -0.08900
C458        C  0.24582474  0.49820488  0.18120852     0.07300
C459        C  0.29218025  0.52994641  0.18112859    -0.02600
C460        C  0.30865760  0.56793224  0.19854270    -0.07100
C461        C  0.27988427  0.57471840  0.21659224     0.06400
C462        C  0.23372818  0.54250671  0.21723077    -0.02100
Br463      Br  0.19131493  0.55007455  0.23981473    -0.01800
H464        H  0.18149342  0.48038328  0.20006320     0.10400
H465        H  0.34429286  0.59220195  0.19818502     0.08400
Br466      Br  0.33499997  0.52191538  0.15918858    -0.02200
C467        C  0.23570020  0.53597681  0.32409436    -0.08900
C468        C  0.24520292  0.50155300  0.31862203     0.07300
C469        C  0.27384441  0.50653732  0.29535145    -0.02600
C470        C  0.29193825  0.54525214  0.27809377    -0.07100
C471        C  0.28102863  0.57899250  0.28289423     0.06400
C472        C  0.25281865  0.57409948  0.30644532    -0.02100
Br473      Br  0.23311187  0.61598582  0.31475907    -0.01800
H474        H  0.21361444  0.53260166  0.34178501     0.10400
H475        H  0.31482487  0.54902180  0.26085966     0.08400
Br476      Br  0.29135617  0.46292167  0.28683369    -0.02200
C477        C  0.32527100  0.66259186  0.71869511     0.45800
H478        H  0.32528567  0.66049527  0.69482517    -0.03300
C479        C  0.32547835  0.66729503  0.77442275     0.45800
H480        H  0.32607053  0.66959818  0.79825673    -0.03300
C481        C  0.37242789  0.68472153  0.73164843    -0.17000
C482        C  0.30475828  0.69013989  0.72998478    -0.16700
C483        C  0.29930945  0.61658859  0.73364299    -0.17100
C484        C  0.37281347  0.68776676  0.76117785    -0.17100
C485        C  0.30396321  0.69193151  0.75952783    -0.16600
C486        C  0.29953890  0.61880008  0.76322296    -0.17000
O487        O  0.46996361  0.24932730  0.63900203    -0.57500
C488        C  0.39783601  0.20855480  0.56577820     0.75100
O489        O  0.33458347  0.12540473  0.64812482    -0.58700
C490        C  0.46934981  0.23344183  0.66369750     0.75100
C491        C  0.34132046  0.24572149  0.64148743     0.77500
Cd492      Cd  0.39006937  0.19930212  0.62779761     1.37500
O493        O  0.43214065  0.22020603  0.58123511    -0.57500
O494        O  0.38087709  0.26572660  0.63139310    -0.56300
C495        C  0.34568686  0.10298151  0.63199742     0.77400
O496        O  0.32517820  0.20445825  0.64698361    -0.58700
O497        O  0.36095179  0.19323012  0.57923792    -0.57200
O498        O  0.43177697  0.20146478  0.67193434    -0.57700
O499        O  0.37778451  0.12542843  0.61463892    -0.56300
O500        O  0.79266110  0.54026682  0.86738447    -0.57500
C501        C  0.81240874  0.61137454  0.94142498     0.75100
O502        O  0.88847333  0.68295765  0.86292648    -0.58700
C503        C  0.77603990  0.54046196  0.84316669     0.75100
C504        C  0.76358249  0.66134618  0.86793583     0.77500
Cd505      Cd  0.81608775  0.61866008  0.87919367     1.37500
O506        O  0.78542861  0.57908669  0.92582208    -0.57500
O507        O  0.74776675  0.62429864  0.88125113    -0.56300
C508        C  0.91092660  0.66303083  0.86462453     0.77400
O509        O  0.80395665  0.67867096  0.85947943    -0.58700
O510        O  0.84066664  0.64651243  0.92818034    -0.57200
O511        O  0.77890602  0.57705490  0.83546170    -0.57100
O512        O  0.88895442  0.62219186  0.87205857    -0.56300
O513        O  0.35979145  0.18500609  0.92699889    -0.57500
C514        C  0.46965711  0.24323280  0.84120369     0.75100
O515        O  0.33015671  0.13359691  0.85776265    -0.58700
C516        C  0.39543762  0.20979949  0.94065995     0.75100
C517        C  0.34488709  0.25444416  0.86933300     0.77500
Cd518      Cd  0.39099052  0.20486819  0.87839743     1.37500
O519        O  0.46820080  0.22407842  0.86476492    -0.57500
O520        O  0.37991556  0.26895605  0.88443924    -0.56300
C521        C  0.34612793  0.10959413  0.86640207     0.77400
O522        O  0.33140536  0.21664367  0.85754997    -0.58700
O523        O  0.43549816  0.24638519  0.83531772    -0.57200
O524        O  0.43039717  0.23248296  0.92540440    -0.57100
O525        O  0.38289733  0.13014549  0.87977942    -0.56300
O526        O  0.24901082  0.78962151  0.85810523    -0.57500
C527        C  0.19519689  0.80793879  0.93283964     0.75100
O528        O  0.21078118  0.89348296  0.85648344    -0.58700
C529        C  0.23690814  0.78147139  0.83210384     0.75100
C530        C  0.10491999  0.76697236  0.85946106     0.77500
Cd531      Cd  0.19930190  0.81893182  0.87093524     1.37500
O532        O  0.21527502  0.79322308  0.91732456    -0.57500
O533        O  0.12679360  0.74992540  0.87023707    -0.56300
C534        C  0.25209085  0.91503939  0.86278442     0.77400
O535        O  0.12753182  0.80824968  0.85291016    -0.58700
O536        O  0.17822495  0.82803314  0.91973976    -0.57200
O537        O  0.20732017  0.79063321  0.82402148    -0.57100
O538        O  0.26875505  0.89163188  0.87119442    -0.56300
O539        O  0.21638008  0.75651400  0.62924824    -0.57500
C540        C  0.19359978  0.80387146  0.55747666     0.75100
O541        O  0.12261793  0.80952877  0.63080404    -0.58700
C542        C  0.23309360  0.77162459  0.65367052     0.75100
C543        C  0.24799002  0.90867565  0.62676520     0.77500
Cd544      Cd  0.19429562  0.81296561  0.61932089     1.37500
O545        O  0.22056110  0.79852564  0.57312367    -0.57500
O546        O  0.25842317  0.88700025  0.60957645    -0.56300
C547        C  0.10105105  0.76794288  0.63633790     0.77400
O548        O  0.21328573  0.88554729  0.64210204    -0.58700
O549        O  0.16640314  0.81219480  0.57066898    -0.57200
O550        O  0.23275776  0.80651685  0.66181756    -0.57100
O551        O  0.12320295  0.74778545  0.63461633    -0.56300
O552        O  0.78761652  0.57842411  0.58154714    -0.57500
C553        C  0.77895580  0.54552177  0.66809816     0.75100
O554        O  0.88361230  0.68271283  0.64865958    -0.58700
C555        C  0.81494678  0.61140685  0.56609348     0.75100
C556        C  0.76386522  0.66444238  0.63226910     0.77500
Cd557      Cd  0.81487979  0.61968944  0.62785034     1.37500
O558        O  0.79895216  0.54517156  0.64530924    -0.57500
O559        O  0.74671002  0.62486648  0.62262069    -0.56300
C560        C  0.90841535  0.66661311  0.64196404     0.77400
O561        O  0.80422349  0.68271622  0.64065821    -0.58700
O562        O  0.77542079  0.57989278  0.67218847    -0.57200
O563        O  0.84108212  0.64698116  0.57934197    -0.57100
O564        O  0.88929773  0.62888401  0.62972604    -0.56300
O565        O  0.53068765  0.77459787  0.63328091    -0.57500
C566        C  0.60335137  0.79336442  0.56120233     0.75100
O567        O  0.66621367  0.86868964  0.64758373    -0.58700
C568        C  0.52944190  0.75943874  0.65826056     0.75100
C569        C  0.65842513  0.75225243  0.63269216     0.77500
Cd570      Cd  0.60973219  0.79879681  0.62329610     1.37500
O571        O  0.56965209  0.76984778  0.57714287    -0.57500
O572        O  0.61780550  0.73175288  0.62477776    -0.56300
C573        C  0.65188010  0.89314355  0.63714272     0.77400
O574        O  0.67585708  0.79393657  0.63719304    -0.58700
O575        O  0.63966611  0.81857259  0.57419264    -0.57200
O576        O  0.56533950  0.76177774  0.66702243    -0.57100
O577        O  0.61787798  0.87353690  0.62114345    -0.56300
O578        O  0.21811757  0.46416296  0.86408408    -0.57500
C579        C  0.19073159  0.38999728  0.93765306     0.75100
O580        O  0.11197635  0.31822833  0.85865937    -0.58700
C581        C  0.22469639  0.46133015  0.83757893     0.75100
C582        C  0.23865102  0.34263760  0.86578444     0.77500
Cd583      Cd  0.18391272  0.38317319  0.87533815     1.37500
O584        O  0.19337527  0.42166863  0.92229574    -0.57500
O585        O  0.25418207  0.38149201  0.87638236    -0.56300
C586        C  0.08708230  0.33350460  0.86655725     0.77400
O587        O  0.19772811  0.32307964  0.85847794    -0.58700
O588        O  0.18528497  0.35584127  0.92413981    -0.57200
O589        O  0.21189591  0.42228419  0.82828424    -0.57100
O590        O  0.10736736  0.37243944  0.87721555    -0.56300
O591        O  0.78748741  0.20960607  0.83353841    -0.57500
C592        C  0.79069896  0.17533735  0.94013000     0.75100
O593        O  0.78861687  0.10330867  0.86529212    -0.58700
C594        C  0.75762800  0.21782527  0.84263448     0.75100
C595        C  0.89171892  0.23110417  0.86954397     0.77500
Cd596      Cd  0.79544004  0.17596006  0.87811725     1.37500
O597        O  0.77979906  0.19923022  0.92522661    -0.57500
O598        O  0.86936725  0.24238628  0.88557544    -0.56300
C599        C  0.74617729  0.08142069  0.86438603     0.77400
O600        O  0.86921719  0.19396927  0.85666818    -0.58700
O601        O  0.80170736  0.15081416  0.92626481    -0.57200
O602        O  0.74468889  0.20615572  0.86834067    -0.57100
O603        O  0.72676891  0.10389348  0.86858783    -0.56300
O604        O  0.52398085  0.74244833  0.86278904    -0.57500
C605        C  0.60224108  0.79336436  0.93599712     0.75100
O606        O  0.66785943  0.78391061  0.85462942    -0.58700
C607        C  0.52688941  0.75406708  0.83665805     0.75100
C608        C  0.64650224  0.88701098  0.86383069     0.77500
Cd609      Cd  0.60485425  0.79163654  0.87367631     1.37500
O610        O  0.56648660  0.77077030  0.92171927    -0.57500
O611        O  0.60868023  0.86456747  0.87611996    -0.56300
C612        C  0.65284711  0.74378314  0.86283378     0.77400
O613        O  0.66443639  0.86473602  0.85515581    -0.58700
O614        O  0.63781177  0.81427752  0.92129755    -0.57200
O615        O  0.56568106  0.78273034  0.82774449    -0.57100
O616        O  0.61469437  0.72517399  0.87490663    -0.56300
O617        O  0.76924754  0.19191257  0.58066032    -0.57500
C618        C  0.76240367  0.22378907  0.66393104     0.75100
O619        O  0.79006418  0.11175522  0.64864503    -0.58700
C620        C  0.79182064  0.18028100  0.56504303     0.75100
C621        C  0.89655619  0.23496679  0.63556576     0.77500
Cd622      Cd  0.79976909  0.18231435  0.62737636     1.37500
O623        O  0.77068956  0.19436646  0.67375017    -0.57500
O624        O  0.87374450  0.25216445  0.62673286    -0.56300
C625        C  0.75048585  0.08703156  0.63954360     0.77400
O626        O  0.87427157  0.19355205  0.64160508    -0.58700
O627        O  0.77055358  0.23307736  0.63747895    -0.57200
O628        O  0.81735026  0.16995149  0.57839965    -0.57100
O629        O  0.73351524  0.10696531  0.62610517    -0.56300
O630        O  0.24056642  0.46118869  0.63649963    -0.57500
C631        C  0.19602124  0.38790772  0.56247426     0.75100
O632        O  0.19977078  0.32078692  0.64464871    -0.58700
C633        C  0.22643614  0.45896121  0.66194086     0.75100
C634        C  0.09194388  0.33662809  0.63171365     0.77500
Cd635      Cd  0.18881825  0.38163146  0.62462024     1.37500
O636        O  0.19974315  0.42017960  0.57758505    -0.57500
O637        O  0.11366068  0.37142508  0.61632530    -0.56300
C638        C  0.24129997  0.33978325  0.63858113     0.77400
O639        O  0.11527970  0.32239961  0.64404064    -0.58700
O640        O  0.18904979  0.35316476  0.57617558    -0.57200
O641        O  0.19421590  0.42135883  0.66991981    -0.57100
O642        O  0.25793395  0.37799794  0.62682655    -0.56300
C643        C  0.67670418  0.34130462  0.72537314     0.45800
H644        H  0.67920955  0.34345194  0.70158825    -0.03300
C645        C  0.67199167  0.33596917  0.78114419     0.45800
H646        H  0.66974798  0.33438261  0.80500536    -0.03300
C647        C  0.70239420  0.38733200  0.74050959    -0.17000
C648        C  0.62803185  0.31904954  0.73673600    -0.16700
C649        C  0.69510829  0.31233711  0.73815396    -0.17100
C650        C  0.69958937  0.38423356  0.76988747    -0.17100
C651        C  0.62584564  0.31656329  0.76640799    -0.16600
C652        C  0.69417806  0.31071891  0.76789924    -0.17000
C653        C  0.71265925  0.22133196  0.70397271    -0.08900
C654        C  0.74420516  0.24610379  0.68231145     0.07300
C655        C  0.75694958  0.29161508  0.67817745    -0.02600
C656        C  0.73979373  0.31179493  0.69626606    -0.07100
C657        C  0.70987914  0.28773719  0.71874300     0.06400
C658        C  0.69434437  0.24134265  0.72148450    -0.02100
Br659      Br  0.64440715  0.20269859  0.74584201    -0.01800
H660        H  0.70090412  0.18583016  0.70654555     0.10400
H661        H  0.75088485  0.34701311  0.69314572     0.08400
Br662      Br  0.79952057  0.32906965  0.64931297    -0.02200
C663        C  0.96872179  0.30480392  0.62466781    -0.08900
C664        C  0.94652213  0.26185427  0.63739662     0.07300
C665        C  0.97287536  0.24549190  0.65014412    -0.02600
C666        C  0.01988415  0.27097566  0.64862046    -0.07100
C667        C  0.04203910  0.31300100  0.63465692     0.06400
C668        C  0.01566728  0.33035927  0.62323648    -0.02100
Br669      Br  0.04049905  0.38856944  0.60540771    -0.01800
H670        H  0.94942786  0.31849709  0.61512332     0.10400
H671        H  0.03921447  0.25724147  0.65805618     0.08400
Br672      Br  0.94769264  0.18902416  0.67021659    -0.02200
C673        C  0.76682846  0.26619596  0.80062006    -0.08900
C674        C  0.74031929  0.24096893  0.82408482     0.07300
C675        C  0.69947276  0.24014314  0.82939635    -0.02600
C676        C  0.68563153  0.26287108  0.81076852    -0.07100
C677        C  0.71148324  0.28714365  0.78670514     0.06400
C678        C  0.75365799  0.29004608  0.78258230    -0.02100
Br679      Br  0.79879253  0.33077213  0.75627640    -0.01800
H680        H  0.79928841  0.26907017  0.79692416     0.10400
H681        H  0.65436398  0.26159892  0.81545811     0.08400
Br682      Br  0.66031032  0.20857243  0.86122600    -0.02200
C683        C  0.76107368  0.18624085  0.98652596    -0.08900
C684        C  0.79074014  0.17615943  0.97197833     0.07300
C685        C  0.82029234  0.16765249  0.98822558    -0.02600
C686        C  0.81944804  0.16900623  0.51822152    -0.07100
C687        C  0.78973504  0.17889351  0.53300710     0.06400
C688        C  0.76003474  0.18739189  0.51667638    -0.02100
Br689      Br  0.71659081  0.20007147  0.53352149    -0.01800
H690        H  0.73810118  0.19276110  0.97435670     0.10400
H691        H  0.84289055  0.16276788  0.53003844     0.08400
Br692      Br  0.86501754  0.15693319  0.97113926    -0.02200
C693        C  0.67433882  0.00899107  0.86782409    -0.08900
C694        C  0.72017313  0.03198122  0.86038518     0.07300
C695        C  0.74009663  0.00673310  0.85139692    -0.02600
C696        C  0.71488353  0.95976262  0.85171304    -0.07100
C697        C  0.66970518  0.93670953  0.86077813     0.06400
C698        C  0.64910573  0.96207167  0.86814426    -0.02100
Br699      Br  0.58704558  0.93583046  0.87927108    -0.01800
H700        H  0.65811569  0.02758257  0.87442040     0.10400
H701        H  0.73128374  0.94118684  0.84546865     0.08400
Br702      Br  0.80125212  0.03356922  0.83821611    -0.02200
C703        C  0.18741655  0.41984181  0.51639899    -0.08900
C704        C  0.19801520  0.39020875  0.53053659     0.07300
C705        C  0.20838495  0.36241001  0.51374271    -0.02600
C706        C  0.20602775  0.36339138  0.98372268    -0.07100
C707        C  0.19415583  0.39209057  0.96956204     0.06400
C708        C  0.18529585  0.42100674  0.98633200    -0.02100
Br709      Br  0.16749178  0.46104217  0.97007210    -0.01800
H710        H  0.17934169  0.44144363  0.52885236     0.10400
H711        H  0.21390698  0.34159794  0.97132688     0.08400
Br712      Br  0.22808012  0.32381022  0.53002370    -0.02200
C713        C  0.01282012  0.32751773  0.87491108    -0.08900
C714        C  0.03708125  0.30749852  0.86460657     0.07300
C715        C  0.01268722  0.26283455  0.85439979    -0.02600
C716        C  0.96556506  0.23936811  0.85540783    -0.07100
C717        C  0.94148017  0.25895345  0.86672092     0.06400
C718        C  0.96585541  0.30397101  0.87619311    -0.02100
Br719      Br  0.93804328  0.33622554  0.89114825    -0.01800
H720        H  0.03050252  0.36174626  0.88266542     0.10400
H721        H  0.94768175  0.20494535  0.84799965     0.08400
Br722      Br  0.04066753  0.23068353  0.83961509    -0.02200
C723        C  0.72069981  0.96494621  0.64952776    -0.08900
C724        C  0.67501118  0.94228247  0.64204329     0.07300
C725        C  0.65373154  0.96767945  0.63707727    -0.02600
C726        C  0.67877098  0.01453230  0.63779050    -0.07100
C727        C  0.72513314  0.03743217  0.64334835     0.06400
C728        C  0.74590672  0.01196756  0.65009065    -0.02100
Br729      Br  0.80893662  0.03834122  0.65798629    -0.01800
H730        H  0.73761242  0.94607671  0.65356725     0.10400
H731        H  0.66183652  0.03322229  0.63322152     0.08400
Br732      Br  0.59065686  0.94110676  0.62919823    -0.02200
C733        C  0.56288544  0.76605781  0.98330164    -0.08900
C734        C  0.60258667  0.79463551  0.96801935     0.07300
C735        C  0.64183163  0.82298890  0.98384462    -0.02600
C736        C  0.64077466  0.82135212  0.51387655    -0.07100
C737        C  0.60133444  0.79247190  0.52920818     0.06400
C738        C  0.56180815  0.76468305  0.51348107    -0.02100
Br739      Br  0.50512038  0.72383449  0.53124794    -0.01800
H740        H  0.53234224  0.74416789  0.97172013     0.10400
H741        H  0.67142200  0.84337095  0.52532420     0.08400
Br742      Br  0.69838494  0.86583233  0.96666060    -0.02200
C743        C  0.70003565  0.45232186  0.71871278    -0.08900
C744        C  0.72461773  0.43074548  0.72447024     0.07300
C745        C  0.76904023  0.45023475  0.71414063    -0.02600
C746        C  0.78634148  0.48770245  0.69579268    -0.07100
C747        C  0.76065073  0.50766362  0.68869983     0.06400
C748        C  0.71769040  0.49056592  0.70111855    -0.02100
Br749      Br  0.67989832  0.51544016  0.69289070    -0.01800
H750        H  0.66650693  0.43842128  0.72681755     0.10400
H751        H  0.81998844  0.50159440  0.68739641     0.08400
Br752      Br  0.80843143  0.42912861  0.72579432    -0.02200
C753        C  0.69184835  0.66293071  0.64049902    -0.08900
C754        C  0.73781290  0.68778546  0.63368766     0.07300
C755        C  0.75763142  0.73416290  0.62792582    -0.02600
C756        C  0.73130236  0.75455751  0.62869671    -0.07100
C757        C  0.68514105  0.72959879  0.63498656     0.06400
C758        C  0.66557348  0.68344613  0.64152063    -0.02100
Br759      Br  0.60408186  0.64723181  0.65362165    -0.01800
H760        H  0.67638596  0.62742569  0.64544339     0.10400
H761        H  0.74678966  0.78992020  0.62334185     0.08400
Br762      Br  0.81942980  0.77079971  0.61649236    -0.02200
C763        C  0.03012621  0.69605555  0.64405421    -0.08900
C764        C  0.05225203  0.74320513  0.64299836     0.07300
C765        C  0.02650876  0.76458588  0.64632586    -0.02600
C766        C  0.97963728  0.73870702  0.64796234    -0.07100
C767        C  0.95753231  0.69169229  0.64632505     0.06400
C768        C  0.98339391  0.67029286  0.64575636    -0.02100
Br769      Br  0.95750776  0.60614499  0.64715039    -0.01800
H770        H  0.04910594  0.67879038  0.64248813     0.10400
H771        H  0.96032652  0.75567283  0.64904513     0.08400
Br772      Br  0.05217493  0.82860121  0.64807705    -0.02200
C773        C  0.15765946  0.80043379  0.51063018    -0.08900
C774        C  0.19354432  0.80126830  0.52555817     0.07300
C775        C  0.22858604  0.80127185  0.50946874    -0.02600
C776        C  0.22754009  0.80179862  0.97932407    -0.07100
C777        C  0.19262406  0.80304301  0.96457438     0.06400
C778        C  0.15690294  0.80141134  0.98059692    -0.02100
Br779      Br  0.10495345  0.79842934  0.96305132    -0.01800
H780        H  0.12994007  0.79948854  0.52237764     0.10400
H781        H  0.25514152  0.80287381  0.96734271     0.08400
Br782      Br  0.28009543  0.80290307  0.52669033    -0.02200
C783        C  0.52094723  0.29992627  0.80526347    -0.08900
C784        C  0.50889949  0.26090368  0.82150903     0.07300
C785        C  0.53407726  0.23906039  0.81806001    -0.02600
C786        C  0.57070460  0.25676476  0.79908096    -0.07100
C787        C  0.58384136  0.29668900  0.78382680     0.06400
C788        C  0.55835689  0.31811724  0.78678517    -0.02100
Br789      Br  0.57428256  0.37302496  0.76688565    -0.01800
H790        H  0.50186450  0.31699646  0.80747874     0.10400
H791        H  0.58846132  0.23869075  0.79574710     0.08400
Br792      Br  0.51912828  0.18387834  0.83748382    -0.02200
C793        C  0.27917382  0.25932718  0.85131420    -0.08900
C794        C  0.32018759  0.27945820  0.86623298     0.07300
C795        C  0.33535971  0.32208107  0.87876848    -0.02600
C796        C  0.30878468  0.34216522  0.87731419    -0.07100
C797        C  0.26684502  0.32116090  0.86358657     0.06400
C798        C  0.25260204  0.27959129  0.84981350    -0.02100
Br799      Br  0.19765940  0.24825155  0.82848781    -0.01800
H800        H  0.26708800  0.22704048  0.84111592     0.10400
H801        H  0.32080075  0.37425492  0.88775872     0.08400
Br802      Br  0.39149416  0.35547281  0.89868636    -0.02200
C803        C  0.34189498  0.03663100  0.87579713    -0.08900
C804        C  0.32320720  0.06010363  0.86236209     0.07300
C805        C  0.28255227  0.03527786  0.84707429    -0.02600
C806        C  0.26091443  0.98825290  0.84671855    -0.07100
C807        C  0.27876358  0.96483901  0.86126450     0.06400
C808        C  0.32030642  0.98981469  0.87555608    -0.02100
Br809      Br  0.34870910  0.96320541  0.89718965    -0.01800
H810        H  0.37309222  0.05472966  0.88756062     0.10400
H811        H  0.22937068  0.96984162  0.83536008     0.08400
Br812      Br  0.25394720  0.06254269  0.82647213    -0.02200
C813        C  0.77162267  0.47032486  0.82602215    -0.08900
C814        C  0.75514466  0.50021488  0.82479279     0.07300
C815        C  0.71913732  0.49074860  0.80617711    -0.02600
C816        C  0.70089663  0.45229053  0.78909539    -0.07100
C817        C  0.71876462  0.42355490  0.78936080     0.06400
C818        C  0.75396410  0.43246036  0.80843532    -0.02100
Br819      Br  0.78043845  0.39528506  0.81104777    -0.01800
H820        H  0.79901460  0.47693350  0.84025064     0.10400
H821        H  0.67253506  0.44471910  0.77587194     0.08400
Br822      Br  0.69170679  0.52742248  0.80390638    -0.02200
C823        C  0.85164591  0.63877726  0.98789873    -0.08900
C824        C  0.81220725  0.60877795  0.97332139     0.07300
C825        C  0.77432746  0.57789554  0.98963366    -0.02600
C826        C  0.77643867  0.57837181  0.51976194    -0.07100
C827        C  0.81559097  0.60927334  0.53426320     0.06400
C828        C  0.85385105  0.63909932  0.51789797    -0.02100
Br829      Br  0.91102886  0.67994491  0.53470640    -0.01800
H830        H  0.88139823  0.66209747  0.97585218     0.10400
H831        H  0.74672678  0.55530968  0.53193527     0.08400
Br832      Br  0.71784042  0.53607280  0.97259371    -0.02200
C833        C  0.98161713  0.73239688  0.85058710    -0.08900
C834        C  0.96029504  0.68708772  0.85926491     0.07300
C835        C  0.98724196  0.66738971  0.86433503    -0.02600
C836        C  0.03402750  0.69380249  0.86279884    -0.07100
C837        C  0.05539316  0.73984313  0.85611457     0.06400
C838        C  0.02846572  0.75871424  0.84878791    -0.02100
Br839      Br  0.05245567  0.82025123  0.83715625    -0.01800
H840        H  0.96177386  0.74806347  0.84589656     0.10400
H841        H  0.05386704  0.67823329  0.86779346     0.08400
Br842      Br  0.96375161  0.60538065  0.87456183    -0.02200
C843        C  0.72681239  0.74809512  0.85732511    -0.08900
C844        C  0.67990112  0.72126565  0.86006369     0.07300
C845        C  0.66085395  0.67424033  0.86234616    -0.02600
C846        C  0.68880905  0.65562138  0.86409551    -0.07100
C847        C  0.73586801  0.68272884  0.86303399     0.06400
C848        C  0.75477337  0.72944405  0.85866654    -0.02100
Br849      Br  0.81836299  0.77052057  0.85641204    -0.01800
H850        H  0.74217213  0.78421998  0.85529637     0.10400
H851        H  0.67351440  0.61955124  0.86650169     0.08400
Br852      Br  0.59715587  0.63325414  0.86228232    -0.02200
C853        C  0.55346164  0.25281400  0.72341247    -0.08900
C854        C  0.58793804  0.29694263  0.71722732     0.07300
C855        C  0.58389210  0.31768512  0.69192050    -0.02600
C856        C  0.54563738  0.29566741  0.67481792    -0.07100
C857        C  0.51020010  0.25284484  0.68195679     0.06400
C858        C  0.51476823  0.23094372  0.70640376    -0.02100
Br859      Br  0.47067873  0.17080318  0.71742824    -0.01800
H860        H  0.55676752  0.23470376  0.74139145     0.10400
H861        H  0.54319691  0.31296189  0.65598364     0.08400
Br862      Br  0.62710421  0.37646169  0.67886331    -0.02200
C863        C  0.27177372  0.97982677  0.65345558    -0.08900
C864        C  0.27446813  0.95831727  0.62848913     0.07300
C865        C  0.30156380  0.98492947  0.60531152    -0.02600
C866        C  0.32480580  0.03162366  0.60744438    -0.07100
C867        C  0.32179961  0.05323769  0.63218437     0.06400
C868        C  0.29527769  0.02677975  0.65558099    -0.02100
Br869      Br  0.29114045  0.05214209  0.69142217    -0.01800
H870        H  0.25151263  0.96000851  0.67156086     0.10400
H871        H  0.34460009  0.05124562  0.58913664     0.08400
Br872      Br  0.30653919  0.96069096  0.56915970    -0.02200
C873        C  0.35840831  0.19504635  0.51918788    -0.08900
C874        C  0.39937894  0.21153152  0.53376726     0.07300
C875        C  0.43947280  0.22957595  0.51727852    -0.02600
C876        C  0.43746437  0.22918517  0.98709948    -0.07100
C877        C  0.39619630  0.21154880  0.97264557     0.06400
C878        C  0.35645099  0.19534863  0.98922571    -0.02100
Br879      Br  0.29791315  0.17437177  0.97302760    -0.01800
H880        H  0.32722363  0.18180825  0.53118133     0.10400
H881        H  0.46842516  0.24235764  0.97486275     0.08400
Br882      Br  0.49821889  0.25563389  0.53402745    -0.02200
C883        C  0.33842782  0.31641924  0.64148627    -0.08900
C884        C  0.31554302  0.26955613  0.64528235     0.07300
C885        C  0.26852673  0.24704900  0.65012574    -0.02600
C886        C  0.24561823  0.27112462  0.64932959    -0.07100
C887        C  0.26821811  0.31750390  0.64358480     0.06400
C888        C  0.31555125  0.34042681  0.64064539    -0.02100
Br889      Br  0.35178259  0.40432855  0.63525127    -0.01800
H890        H  0.37452544  0.33466106  0.63835312     0.10400
H891        H  0.20942568  0.25288804  0.65198367     0.08400
Br892      Br  0.23232980  0.18332986  0.65605896    -0.02200
C893        C  0.28634987  0.77726728  0.69128559    -0.08900
C894        C  0.25237519  0.75027617  0.67187495     0.07300
C895        C  0.23736572  0.70383671  0.67087110    -0.02600
C896        C  0.25592609  0.68550064  0.68947644    -0.07100
C897        C  0.28840335  0.71225709  0.70979204     0.06400
C898        C  0.30469842  0.75888122  0.70990147    -0.02100
Br899      Br  0.35395599  0.80005788  0.73311415    -0.01800
H900        H  0.29913664  0.81314611  0.69180187     0.10400
H901        H  0.24350539  0.64967768  0.68895229     0.08400
Br902      Br  0.18920256  0.66283537  0.64658796    -0.02200
C903        C  0.41845686  0.73444705  0.69192230    -0.08900
C904        C  0.41234569  0.70221623  0.71269774     0.07300
C905        C  0.44307800  0.68665985  0.71410545    -0.02600
C906        C  0.48115304  0.70600873  0.69632206    -0.07100
C907        C  0.48837283  0.73969823  0.67625987     0.06400
C908        C  0.45612196  0.75349794  0.67389524    -0.02100
Br909      Br  0.46238336  0.80002403  0.64803961    -0.01800
H910        H  0.39437913  0.74591597  0.69034794     0.10400
H911        H  0.50473147  0.69391963  0.69773390     0.08400
Br912      Br  0.43249048  0.63648258  0.73778007    -0.02200
C913        C  0.31497332  0.74787033  0.79662855    -0.08900
C914        C  0.28626595  0.71614370  0.77656828     0.07300
C915        C  0.24149156  0.70695558  0.77447213    -0.02600
C916        C  0.22658376  0.72967726  0.79216407    -0.07100
C917        C  0.25524089  0.76105355  0.81240425     0.06400
C918        C  0.30013072  0.77078627  0.81413525    -0.02100
Br919      Br  0.34349602  0.81709885  0.83847676    -0.01800
H920        H  0.34952015  0.75549336  0.79828191     0.10400
H921        H  0.19182641  0.72145071  0.79088869     0.08400
Br922      Br  0.19744284  0.66035997  0.75069121    -0.02200
C923        C  0.41371310  0.67780348  0.80169050    -0.08900
C924        C  0.41324950  0.70582212  0.77982786     0.07300
C925        C  0.44987312  0.75006262  0.77747148    -0.02600
C926        C  0.48671922  0.76447060  0.79579359    -0.07100
C927        C  0.48733629  0.73632262  0.81750554     0.06400
C928        C  0.45004722  0.69258181  0.82051002    -0.02100
Br929      Br  0.44718119  0.65063103  0.84893843    -0.01800
H930        H  0.38563497  0.64385749  0.80398820     0.10400
H931        H  0.51448191  0.79858945  0.79370107     0.08400
Br932      Br  0.45023330  0.79422591  0.75220245    -0.02200
C933        C  0.21716665  0.50449372  0.69976523    -0.08900
C934        C  0.24581704  0.49821991  0.68119887     0.07300
C935        C  0.29217569  0.52994659  0.68113354    -0.02600
C936        C  0.30865317  0.56792372  0.69855487    -0.07100
C937        C  0.27987591  0.57471242  0.71659839     0.06400
C938        C  0.23371590  0.54251364  0.71722380    -0.02100
Br939      Br  0.19130234  0.55008287  0.73980631    -0.01800
H940        H  0.18147769  0.48040987  0.70003565     0.10400
H941        H  0.34429094  0.59218451  0.69820742     0.08400
Br942      Br  0.33499684  0.52190133  0.65920628    -0.02200
C943        C  0.23568954  0.53595713  0.82410269    -0.08900
C944        C  0.24520469  0.50154023  0.81863530     0.07300
C945        C  0.27384897  0.50652845  0.79536541    -0.02600
C946        C  0.29193500  0.54524035  0.77810459    -0.07100
C947        C  0.28101486  0.57897415  0.78290100     0.06400
C948        C  0.25279781  0.57407509  0.80644925    -0.02100
Br949      Br  0.23306214  0.61594284  0.81474880    -0.01800
H950        H  0.21359867  0.53257794  0.84179102     0.10400
H951        H  0.31482394  0.54901309  0.76087124     0.08400
Br952      Br  0.29137176  0.46292008  0.78685151    -0.02200
loop_ 
_geom_bond_atom_site_label_1 
_geom_bond_atom_site_label_2 
_geom_bond_distance 
_geom_bond_site_symmetry_2 
_ccdc_geom_bond_type 
C1            H2   1.112       .  S
C1            C7   1.535       .  S
C1            C6   1.531       .  S
C1            C5   1.531       .  S
C3            H4   1.110       .  S
C3            C9   1.541       .  S
C3            C8   1.538       .  S
C3           C10   1.539       .  S
C5            C8   1.376       .  D
C5          C428   1.477       .  S
C6            C9   1.375       .  D
C6          C421   1.485       .  S
C7           C10   1.377       .  D
C7          C461   1.482       .  S
C8          C448   1.489       .  S
C9          C438   1.484       .  S
C10         C471   1.494       .  S
O11          C14   1.265       .  A
O11         Cd16   2.461       .  S
C12          O21   1.265       .  A
C12          O17   1.266       .  A
C12         C398   1.490       .  S
O13          C19   1.265       .  A
O13         Cd16   2.471       .  S
C14          O22   1.263       .  A
C14         C381   1.487       .  S
C15          O20   1.263       .  A
C15          O18   1.265       .  A
C15         C408   1.490       .  S
Cd16         O23   2.440       .  S
Cd16         O22   2.486       .  S
Cd16         O21   2.439       .  S
Cd16         O17   2.494       .  S
Cd16         O20   2.489       .  S
Cd16         O18   2.466       .  S
C19          O23   1.265       .  A
C19         C391   1.482       .  S
O24          C27   1.265       .  A
O24         Cd29   2.462       .  S
C25          O34   1.264       .  A
C25          O30   1.264       .  A
C25         C348   1.485       .  S
O26          C32   1.267       .  A
O26         Cd29   2.473       .  S
C27          O35   1.263       .  A
C27         C338   1.476       .  S
C28          O33   1.266       .  A
C28          O31   1.265       .  A
C28         C371   1.485       .  S
Cd29         O36   2.469       .  S
Cd29         O35   2.453       .  S
Cd29         O34   2.456       .  S
Cd29         O30   2.487       .  S
Cd29         O33   2.476       .  S
Cd29         O31   2.455       .  S
C32          O36   1.263       .  A
C32         C358   1.489       .  S
O37          C40   1.263       .  A
O37         Cd42   2.441       .  S
C38          O47   1.264       .  A
C38          O43   1.264       .  A
C38         C308   1.481       .  S
O39          C45   1.265       .  A
O39         Cd42   2.489       .  S
C40          O48   1.268       .  A
C40         C401   1.488       .  S
C41          O46   1.269       .  A
C41          O44   1.264       .  A
C41         C318   1.489       .  S
Cd42         O49   2.445       .  S
Cd42         O48   2.501       .  S
Cd42         O47   2.482       .  S
Cd42         O43   2.473       .  S
Cd42         O46   2.479       .  S
Cd42         O44   2.436       .  S
C45          O49   1.264       .  A
C45         C328   1.488       .  S
O50          C53   1.265       .  A
O50         Cd55   2.455       .  S
C51          O60   1.262       .  A
C51          O56   1.266       .  A
C51         C301   1.481       .  S
O52          C58   1.266       .  A
O52         Cd55   2.482       .  S
C53          O61   1.265       .  A
C53         C441   1.475       .  S
C54          O59   1.266       .  A
C54          O57   1.267       .  A
C54         C361   1.485       .  S
Cd55         O62   2.444       .  S
Cd55         O61   2.462       .  S
Cd55         O60   2.448       .  S
Cd55         O56   2.493       .  S
Cd55         O59   2.457       .  S
Cd55         O57   2.434       .  S
C58          O62   1.262       .  A
C58         C331   1.485       .  S
O63          C66   1.264       .  A
O63         Cd68   2.458       .  S
C64          O73   1.265       .  A
C64          O69   1.264       .  A
C64         C298   1.486       .  S
O65          C71   1.263       .  A
O65         Cd68   2.465       .  S
C66          O74   1.266       .  A
C66         C418   1.478       .  S
C67          O72   1.267       .  A
C67          O70   1.263       .  A
C67         C388   1.482       .  S
Cd68         O75   2.448       .  S
Cd68         O74   2.451       .  S
Cd68         O73   2.454       .  S
Cd68         O69   2.474       .  S
Cd68         O72   2.485       .  S
Cd68         O70   2.431       .  S
C71          O75   1.264       .  A
C71         C288   1.483       .  S
O76          C79   1.268       .  A
O76         Cd81   2.495       .  S
C77          O86   1.263       .  A
C77          O82   1.265       .  A
C77         C271   1.475       .  S
O78          C84   1.267       .  A
O78         Cd81   2.473       .  S
C79          O87   1.262       .  A
C79         C351   1.482       .  S
C80          O85   1.267       .  A
C80          O83   1.267       .  A
C80         C278   1.475       .  S
Cd81         O88   2.419       .  S
Cd81         O87   2.429       .  S
Cd81         O86   2.462       .  S
Cd81         O82   2.472       .  S
Cd81         O85   2.449       .  S
Cd81         O83   2.452       .  S
C84          O88   1.262       .  A
C84         C291   1.477       .  S
O89          C92   1.263       .  A
O89         Cd94   2.453       .  S
C90          O99   1.265       .  A
C90          O95   1.264       .  A
C90         C261   1.488       .  S
O91          C97   1.266       .  A
O91         Cd94   2.486       .  S
C92         O100   1.265       .  A
C92         C431   1.477       .  S
C93          O98   1.266       .  A
C93          O96   1.266       .  A
C93         C281   1.477       .  S
Cd94        O101   2.445       .  S
Cd94        O100   2.469       .  S
Cd94         O99   2.450       .  S
Cd94         O95   2.480       .  S
Cd94         O98   2.451       .  S
Cd94         O96   2.459       .  S
C97         O101   1.262       .  A
C97         C248   1.483       .  S
O102        C105   1.265       .  A
O102       Cd107   2.475       .  S
C103        O112   1.264       .  A
C103        O108   1.265       .  A
C103        C231   1.487       .  S
O104        C110   1.263       .  A
O104       Cd107   2.489       .  S
C105        O113   1.264       .  A
C105        C468   1.482       .  S
C106        O111   1.267       .  A
C106        O109   1.267       .  A
C106        C321   1.489       .  S
Cd107       O114   2.470       .  S
Cd107       O113   2.487       .  S
Cd107       O112   2.462       .  S
Cd107       O108   2.493       .  S
Cd107       O111   2.472       .  S
Cd107       O109   2.447       .  S
C110        O114   1.264       .  A
C110        C238   1.492       .  S
O115        C118   1.266       .  A
O115       Cd120   2.452       .  S
C116        O125   1.263       .  A
C116        O121   1.266       .  A
C116        C208   1.481       .  S
O117        C123   1.264       .  A
O117       Cd120   2.467       .  S
C118        O126   1.265       .  A
C118        C198   1.485       .  S
C119        O124   1.268       .  A
C119        O122   1.263       .  A
C119        C241   1.489       .  S
Cd120       O127   2.463       .  S
Cd120       O126   2.481       .  S
Cd120       O125   2.445       .  S
Cd120       O121   2.482       .  S
Cd120       O124   2.494       .  S
Cd120       O122   2.448       .  S
C123        O127   1.265       .  A
C123        C218   1.486       .  S
O128        C131   1.265       .  A
O128       Cd133   2.480       .  S
C129        O138   1.261       .  A
C129        O134   1.268       .  A
C129        C258   1.489       .  S
O130        C136   1.265       .  A
O130       Cd133   2.474       .  S
C131        O139   1.264       .  A
C131        C451   1.481       .  S
C132        O137   1.267       .  A
C132        O135   1.265       .  A
C132        C221   1.487       .  S
Cd133       O140   2.475       .  S
Cd133       O139   2.465       .  S
Cd133       O138   2.436       .  S
Cd133       O134   2.503       .  S
Cd133       O137   2.465       .  S
Cd133       O135   2.450       .  S
C136        O140   1.264       .  A
C136        C368   1.485       .  S
O141        C144   1.265       .  A
O141       Cd146   2.506       .  S
C142        O151   1.264       .  A
C142        O147   1.266       .  A
C142        C178   1.482       .  S
O143        C149   1.265       .  A
O143       Cd146   2.480       .  S
C144        O152   1.264       .  A
C144        C211   1.491       .  S
C145        O150   1.264       .  A
C145        O148   1.265       .  A
C145        C188   1.491       .  S
Cd146       O153   2.449       .  S
Cd146       O152   2.446       .  S
Cd146       O151   2.459       .  S
Cd146       O147   2.496       .  S
Cd146       O150   2.485       .  S
Cd146       O148   2.474       .  S
C149        O153   1.266       .  A
C149        C251   1.487       .  S
O154        C157   1.264       .  A
O154       Cd159   2.470       .  S
C155        O164   1.264       .  A
C155        O160   1.268       .  A
C155        C228   1.486       .  S
O156        C162   1.268       .  A
O156       Cd159   2.485       .  S
C157        O165   1.263       .  A
C157        C458   1.477       .  S
C158        O163   1.268       .  A
C158        O161   1.264       .  A
C158        C191   1.492       .  S
Cd159       O166   2.445       .  S
Cd159       O165   2.471       .  S
Cd159       O164   2.460       .  S
Cd159       O160   2.481       .  S
Cd159       O163   2.484       .  S
Cd159       O161   2.460       .  S
C162        O166   1.262       .  A
C162        C411   1.487       .  S
C167        H168   1.108       .  S
C167        C173   1.542       .  S
C167        C172   1.541       .  S
C167        C171   1.547       .  S
C169        H170   1.111       .  S
C169        C175   1.543       .  S
C169        C174   1.531       .  S
C169        C176   1.544       .  S
C171        C174   1.368       .  D
C171        C268   1.488       .  S
C172        C175   1.381       .  D
C172        C378   1.504       .  S
C173        C176   1.383       .  D
C173        C181   1.491       .  S
C174        C341   1.484       .  S
C175        C311   1.486       .  S
C176        C201   1.503       .  S
C177        C178   1.406       .  A
C177        C182   1.404       .  A
C177        H184   1.083       .  S
C178        C179   1.411       .  A
C179        C180   1.396       .  A
C179       Br186   1.920       .  S
C180        C181   1.403       .  A
C180        H185   1.082       .  S
C181        C182   1.412       .  A
C182       Br183   1.920       .  S
C187        C188   1.406       .  A
C187        C192   1.400   1_655  A
C187        H194   1.083       .  S
C188        C189   1.415       .  A
C189        C190   1.402   1_655  A
C189       Br196   1.921       .  S
C190        C191   1.407       .  A
C190        H195   1.083       .  S
C191        C192   1.416       .  A
C192       Br193   1.923       .  S
C197        C198   1.403       .  A
C197        C202   1.397       .  A
C197        H204   1.083       .  S
C198        C199   1.412       .  A
C199        C200   1.400       .  A
C199       Br206   1.921       .  S
C200        C201   1.408       .  A
C200        H205   1.076       .  S
C201        C202   1.416       .  A
C202       Br203   1.914       .  S
C207        C208   1.404       .  A
C207        C688   1.403       .  A
C207        H214   1.084       .  S
C208        C209   1.411       .  A
C209        C686   1.396       .  A
C209       Br216   1.923       .  S
C210        C211   1.407       .  A
C210        C685   1.396   1_554  A
C210        H215   1.083       .  S
C211        C212   1.417       .  A
C212        C683   1.403   1_554  A
C212       Br213   1.920       .  S
C217        C218   1.405       .  A
C217        C222   1.398   1_545  A
C217        H224   1.083       .  S
C218        C219   1.413       .  A
C219        C220   1.400   1_545  A
C219       Br226   1.922       .  S
C220        C221   1.407       .  A
C220        H225   1.083       .  S
C221        C222   1.415       .  A
C222       Br223   1.923       .  S
C227        C228   1.405       .  A
C227        C708   1.401   1_554  A
C227        H234   1.084       .  S
C228        C229   1.413       .  A
C229        C706   1.399   1_554  A
C229       Br236   1.922       .  S
C230        C231   1.406       .  A
C230        C705   1.399       .  A
C230        H235   1.084       .  S
C231        C232   1.414       .  A
C232        C703   1.401       .  A
C232       Br233   1.920       .  S
C237        C238   1.406       .  A
C237        C242   1.399   1_455  A
C237        H244   1.083       .  S
C238        C239   1.416       .  A
C239        C240   1.403   1_455  A
C239       Br246   1.922       .  S
C240        C241   1.406       .  A
C240        H245   1.083       .  S
C241        C242   1.415       .  A
C242       Br243   1.923       .  S
C247        C248   1.405       .  A
C247        C252   1.402   1_565  A
C247        H254   1.084       .  S
C248        C249   1.412       .  A
C249        C250   1.397   1_565  A
C249       Br256   1.922       .  S
C250        C251   1.405       .  A
C250        H255   1.083       .  S
C251        C252   1.416       .  A
C252       Br253   1.922       .  S
C257        C258   1.407       .  A
C257        C738   1.403       .  A
C257        H264   1.083       .  S
C258        C259   1.416       .  A
C259        C736   1.396       .  A
C259       Br266   1.924       .  S
C260        C261   1.405       .  A
C260        C735   1.396   1_554  A
C260        H265   1.083       .  S
C261        C262   1.416       .  A
C262        C733   1.403   1_554  A
C262       Br263   1.922       .  S
C267        C268   1.403       .  A
C267        C272   1.399       .  A
C267        H274   1.069       .  S
C268        C269   1.407       .  A
C269        C270   1.401       .  A
C269       Br276   1.909       .  S
C270        C271   1.404       .  A
C270        H275   1.078       .  S
C271        C272   1.408       .  A
C272       Br273   1.920       .  S
C277        C278   1.404       .  A
C277        C282   1.399       .  A
C277        H284   1.084       .  S
C278        C279   1.410       .  A
C279        C280   1.397       .  A
C279       Br286   1.921       .  S
C280        C281   1.404       .  A
C280        H285   1.083       .  S
C281        C282   1.411       .  A
C282       Br283   1.920       .  S
C287        C288   1.406       .  A
C287        C292   1.395   1_455  A
C287        H294   1.083       .  S
C288        C289   1.415       .  A
C289        C290   1.399   1_455  A
C289       Br296   1.921       .  S
C290        C291   1.403       .  A
C290        H295   1.083       .  S
C291        C292   1.411       .  A
C292       Br293   1.923       .  S
C297        C298   1.406       .  A
C297        C778   1.397   1_554  A
C297        H304   1.083       .  S
C298        C299   1.416       .  A
C299        C776   1.402   1_554  A
C299       Br306   1.922       .  S
C300        C301   1.404       .  A
C300        C775   1.402       .  A
C300        H305   1.084       .  S
C301        C302   1.411       .  A
C302        C773   1.397       .  A
C302       Br303   1.922       .  S
C307        C308   1.406       .  A
C307        C312   1.402       .  A
C307        H314   1.083       .  S
C308        C309   1.412       .  A
C309        C310   1.399       .  A
C309       Br316   1.921       .  S
C310        C311   1.401       .  A
C310        H315   1.079       .  S
C311        C312   1.407       .  A
C312       Br313   1.916       .  S
C317        C318   1.407       .  A
C317        C322   1.402       .  A
C317        H324   1.084       .  S
C318        C319   1.416       .  A
C319        C320   1.397       .  A
C319       Br326   1.923       .  S
C320        C321   1.405       .  A
C320        H325   1.083       .  S
C321        C322   1.415       .  A
C322       Br323   1.922       .  S
C327        C328   1.405       .  A
C327        C332   1.396   1_545  A
C327        H334   1.084       .  S
C328        C329   1.415       .  A
C329        C330   1.402   1_545  A
C329       Br336   1.921       .  S
C330        C331   1.406       .  A
C330        H335   1.083       .  S
C331        C332   1.414       .  A
C332       Br333   1.924       .  S
C337        C338   1.403       .  A
C337        C342   1.397       .  A
C337        H344   1.080       .  S
C338        C339   1.412       .  A
C339        C340   1.398       .  A
C339       Br346   1.921       .  S
C340        C341   1.402       .  A
C340        H345   1.071       .  S
C341        C342   1.408       .  A
C342       Br343   1.910       .  S
C347        C348   1.404       .  A
C347        C828   1.396       .  A
C347        H354   1.084       .  S
C348        C349   1.415       .  A
C349        C826   1.402       .  A
C349       Br356   1.920       .  S
C350        C351   1.405       .  A
C350        C825   1.402   1_554  A
C350        H355   1.084       .  S
C351        C352   1.413       .  A
C352        C823   1.396   1_554  A
C352       Br353   1.923       .  S
C357        C358   1.407       .  A
C357        C362   1.400   1_655  A
C357        H364   1.083       .  S
C358        C359   1.416       .  A
C359        C360   1.397   1_655  A
C359       Br366   1.922       .  S
C360        C361   1.405       .  A
C360        H365   1.083       .  S
C361        C362   1.414       .  A
C362       Br363   1.922       .  S
C367        C368   1.406       .  A
C367        C372   1.400       .  A
C367        H374   1.083       .  S
C368        C369   1.412       .  A
C369        C370   1.400       .  A
C369       Br376   1.921       .  S
C370        C371   1.406       .  A
C370        H375   1.084       .  S
C371        C372   1.413       .  A
C372       Br373   1.921       .  S
C377        C378   1.409       .  A
C377        C382   1.403       .  A
C377        H384   1.081       .  S
C378        C379   1.417       .  A
C379        C380   1.396       .  A
C379       Br386   1.908       .  S
C380        C381   1.400       .  A
C380        H385   1.084       .  S
C381        C382   1.413       .  A
C382       Br383   1.920       .  S
C387        C388   1.406       .  A
C387        C392   1.402   1_565  A
C387        H394   1.084       .  S
C388        C389   1.414       .  A
C389        C390   1.395   1_565  A
C389       Br396   1.924       .  S
C390        C391   1.403       .  A
C390        H395   1.084       .  S
C391        C392   1.413       .  A
C392       Br393   1.921       .  S
C397        C398   1.405       .  A
C397        C878   1.395   1_554  A
C397        H404   1.083       .  S
C398        C399   1.416       .  A
C399        C876   1.404   1_554  A
C399       Br406   1.921       .  S
C400        C401   1.407       .  A
C400        C875   1.404       .  A
C400        H405   1.083       .  S
C401        C402   1.414       .  A
C402        C873   1.395       .  A
C402       Br403   1.923       .  S
C407        C408   1.406       .  A
C407        C412   1.398       .  A
C407        H414   1.083       .  S
C408        C409   1.416       .  A
C409        C410   1.401       .  A
C409       Br416   1.921       .  S
C410        C411   1.405       .  A
C410        H415   1.083       .  S
C411        C412   1.415       .  A
C412       Br413   1.923       .  S
C417        C418   1.402       .  A
C417        C422   1.395       .  A
C417        H424   1.084       .  S
C418        C419   1.413       .  A
C419        C420   1.399       .  A
C419       Br426   1.920       .  S
C420        C421   1.403       .  A
C420        H425   1.084       .  S
C421        C422   1.410       .  A
C422       Br423   1.912       .  S
C427        C428   1.401       .  A
C427        C432   1.396       .  A
C427        H434   1.084       .  S
C428        C429   1.406       .  A
C429        C430   1.399       .  A
C429       Br436   1.918       .  S
C430        C431   1.406       .  A
C430        H435   1.083       .  S
C431        C432   1.413       .  A
C432       Br433   1.922       .  S
C437        C438   1.403       .  A
C437        C442   1.397       .  A
C437        H444   1.084       .  S
C438        C439   1.412       .  A
C439        C440   1.398       .  A
C439       Br446   1.917       .  S
C440        C441   1.403       .  A
C440        H445   1.084       .  S
C441        C442   1.409       .  A
C442       Br443   1.920       .  S
C447        C448   1.404       .  A
C447        C452   1.399       .  A
C447        H454   1.084       .  S
C448        C449   1.411       .  A
C449        C450   1.399       .  A
C449       Br456   1.912       .  S
C450        C451   1.404       .  A
C450        H455   1.084       .  S
C451        C452   1.411       .  A
C452       Br453   1.919       .  S
C457        C458   1.404       .  A
C457        C462   1.399       .  A
C457        H464   1.083       .  S
C458        C459   1.410       .  A
C459        C460   1.397       .  A
C459       Br466   1.920       .  S
C460        C461   1.402       .  A
C460        H465   1.083       .  S
C461        C462   1.409       .  A
C462       Br463   1.916       .  S
C467        C468   1.402       .  A
C467        C472   1.398       .  A
C467        H474   1.083       .  S
C468        C469   1.412       .  A
C469        C470   1.401       .  A
C469       Br476   1.919       .  S
C470        C471   1.406       .  A
C470        H475   1.082       .  S
C471        C472   1.413       .  A
C472       Br473   1.916       .  S
C477        H478   1.112       .  S
C477        C483   1.535       .  S
C477        C482   1.531       .  S
C477        C481   1.531       .  S
C479        H480   1.110       .  S
C479        C485   1.541       .  S
C479        C484   1.538       .  S
C479        C486   1.539       .  S
C481        C484   1.376       .  D
C481        C904   1.478       .  S
C482        C485   1.375       .  D
C482        C897   1.485       .  S
C483        C486   1.377       .  D
C483        C937   1.482       .  S
C484        C924   1.489       .  S
C485        C914   1.484       .  S
C486        C947   1.494       .  S
O487        C490   1.265       .  A
O487       Cd492   2.461       .  S
C488        O497   1.265       .  A
C488        O493   1.266       .  A
C488        C874   1.490       .  S
O489        C495   1.265       .  A
O489       Cd492   2.471       .  S
C490        O498   1.263       .  A
C490        C857   1.487       .  S
C491        O496   1.263       .  A
C491        O494   1.265       .  A
C491        C884   1.490       .  S
Cd492       O499   2.440       .  S
Cd492       O498   2.487       .  S
Cd492       O497   2.439       .  S
Cd492       O493   2.494       .  S
Cd492       O496   2.489       .  S
Cd492       O494   2.466       .  S
C495        O499   1.265       .  A
C495        C867   1.482       .  S
O500        C503   1.265       .  A
O500       Cd505   2.462       .  S
C501        O510   1.264       .  A
C501        O506   1.264       .  A
C501        C824   1.485       .  S
O502        C508   1.267       .  A
O502       Cd505   2.473       .  S
C503        O511   1.263       .  A
C503        C814   1.476       .  S
C504        O509   1.266       .  A
C504        O507   1.265       .  A
C504        C847   1.485       .  S
Cd505       O512   2.469       .  S
Cd505       O511   2.453       .  S
Cd505       O510   2.456       .  S
Cd505       O506   2.487       .  S
Cd505       O509   2.476       .  S
Cd505       O507   2.455       .  S
C508        O512   1.263       .  A
C508        C834   1.489       .  S
O513        C516   1.263       .  A
O513       Cd518   2.441       .  S
C514        O523   1.264       .  A
C514        O519   1.264       .  A
C514        C784   1.481       .  S
O515        C521   1.265       .  A
O515       Cd518   2.489       .  S
C516        O524   1.268       .  A
C516        C877   1.488       .  S
C517        O522   1.269       .  A
C517        O520   1.264       .  A
C517        C794   1.489       .  S
Cd518       O525   2.445       .  S
Cd518       O524   2.501       .  S
Cd518       O523   2.482       .  S
Cd518       O519   2.473       .  S
Cd518       O522   2.479       .  S
Cd518       O520   2.436       .  S
C521        O525   1.264       .  A
C521        C804   1.488       .  S
O526        C529   1.265       .  A
O526       Cd531   2.455       .  S
C527        O536   1.262       .  A
C527        O532   1.266       .  A
C527        C777   1.481       .  S
O528        C534   1.266       .  A
O528       Cd531   2.482       .  S
C529        O537   1.265       .  A
C529        C917   1.475       .  S
C530        O535   1.266       .  A
C530        O533   1.267       .  A
C530        C837   1.485       .  S
Cd531       O538   2.444       .  S
Cd531       O537   2.462       .  S
Cd531       O536   2.448       .  S
Cd531       O532   2.493       .  S
Cd531       O535   2.457       .  S
Cd531       O533   2.434       .  S
C534        O538   1.262       .  A
C534        C807   1.485       .  S
O539        C542   1.264       .  A
O539       Cd544   2.458       .  S
C540        O549   1.265       .  A
C540        O545   1.264       .  A
C540        C774   1.486       .  S
O541        C547   1.263       .  A
O541       Cd544   2.465       .  S
C542        O550   1.266       .  A
C542        C894   1.478       .  S
C543        O548   1.267       .  A
C543        O546   1.263       .  A
C543        C864   1.482       .  S
Cd544       O551   2.448       .  S
Cd544       O550   2.451       .  S
Cd544       O549   2.454       .  S
Cd544       O545   2.474       .  S
Cd544       O548   2.485       .  S
Cd544       O546   2.431       .  S
C547        O551   1.264       .  A
C547        C764   1.483       .  S
O552        C555   1.268       .  A
O552       Cd557   2.495       .  S
C553        O562   1.263       .  A
C553        O558   1.265       .  A
C553        C747   1.475       .  S
O554        C560   1.267       .  A
O554       Cd557   2.473       .  S
C555        O563   1.262       .  A
C555        C827   1.482       .  S
C556        O561   1.267       .  A
C556        O559   1.267       .  A
C556        C754   1.475       .  S
Cd557       O564   2.419       .  S
Cd557       O563   2.429       .  S
Cd557       O562   2.462       .  S
Cd557       O558   2.472       .  S
Cd557       O561   2.449       .  S
Cd557       O559   2.452       .  S
C560        O564   1.262       .  A
C560        C767   1.477       .  S
O565        C568   1.263       .  A
O565       Cd570   2.454       .  S
C566        O575   1.265       .  A
C566        O571   1.264       .  A
C566        C737   1.488       .  S
O567        C573   1.266       .  A
O567       Cd570   2.486       .  S
C568        O576   1.265       .  A
C568        C907   1.477       .  S
C569        O574   1.266       .  A
C569        O572   1.266       .  A
C569        C757   1.477       .  S
Cd570       O577   2.446       .  S
Cd570       O576   2.469       .  S
Cd570       O575   2.450       .  S
Cd570       O571   2.480       .  S
Cd570       O574   2.451       .  S
Cd570       O572   2.459       .  S
C573        O577   1.262       .  A
C573        C724   1.483       .  S
O578        C581   1.265       .  A
O578       Cd583   2.475       .  S
C579        O588   1.264       .  A
C579        O584   1.265       .  A
C579        C707   1.487       .  S
O580        C586   1.263       .  A
O580       Cd583   2.489       .  S
C581        O589   1.264       .  A
C581        C944   1.482       .  S
C582        O587   1.267       .  A
C582        O585   1.267       .  A
C582        C797   1.489       .  S
Cd583       O590   2.470       .  S
Cd583       O589   2.487       .  S
Cd583       O588   2.462       .  S
Cd583       O584   2.493       .  S
Cd583       O587   2.472       .  S
Cd583       O585   2.447       .  S
C586        O590   1.264       .  A
C586        C714   1.492       .  S
O591        C594   1.266       .  A
O591       Cd596   2.452       .  S
C592        O601   1.263       .  A
C592        O597   1.266       .  A
C592        C684   1.481       .  S
O593        C599   1.264       .  A
O593       Cd596   2.467       .  S
C594        O602   1.265       .  A
C594        C674   1.485       .  S
C595        O600   1.268       .  A
C595        O598   1.263       .  A
C595        C717   1.489       .  S
Cd596       O603   2.463       .  S
Cd596       O602   2.481       .  S
Cd596       O601   2.445       .  S
Cd596       O597   2.482       .  S
Cd596       O600   2.494       .  S
Cd596       O598   2.448       .  S
C599        O603   1.265       .  A
C599        C694   1.486       .  S
O604        C607   1.265       .  A
O604       Cd609   2.480       .  S
C605        O614   1.261       .  A
C605        O610   1.268       .  A
C605        C734   1.489       .  S
O606        C612   1.265       .  A
O606       Cd609   2.474       .  S
C607        O615   1.264       .  A
C607        C927   1.481       .  S
C608        O613   1.267       .  A
C608        O611   1.265       .  A
C608        C697   1.487       .  S
Cd609       O616   2.475       .  S
Cd609       O615   2.465       .  S
Cd609       O614   2.436       .  S
Cd609       O610   2.503       .  S
Cd609       O613   2.464       .  S
Cd609       O611   2.450       .  S
C612        O616   1.264       .  A
C612        C844   1.485       .  S
O617        C620   1.265       .  A
O617       Cd622   2.506       .  S
C618        O627   1.264       .  A
C618        O623   1.266       .  A
C618        C654   1.482       .  S
O619        C625   1.265       .  A
O619       Cd622   2.481       .  S
C620        O628   1.264       .  A
C620        C687   1.491       .  S
C621        O626   1.264       .  A
C621        O624   1.265       .  A
C621        C664   1.491       .  S
Cd622       O629   2.449       .  S
Cd622       O628   2.446       .  S
Cd622       O627   2.459       .  S
Cd622       O623   2.495       .  S
Cd622       O626   2.484       .  S
Cd622       O624   2.474       .  S
C625        O629   1.266       .  A
C625        C727   1.486       .  S
O630        C633   1.264       .  A
O630       Cd635   2.470       .  S
C631        O640   1.264       .  A
C631        O636   1.268       .  A
C631        C704   1.486       .  S
O632        C638   1.268       .  A
O632       Cd635   2.484       .  S
C633        O641   1.263       .  A
C633        C934   1.477       .  S
C634        O639   1.268       .  A
C634        O637   1.264       .  A
C634        C667   1.491       .  S
Cd635       O642   2.445       .  S
Cd635       O641   2.471       .  S
Cd635       O640   2.460       .  S
Cd635       O636   2.481       .  S
Cd635       O639   2.484       .  S
Cd635       O637   2.460       .  S
C638        O642   1.262       .  A
C638        C887   1.487       .  S
C643        H644   1.108       .  S
C643        C649   1.542       .  S
C643        C648   1.541       .  S
C643        C647   1.547       .  S
C645        H646   1.111       .  S
C645        C651   1.543       .  S
C645        C650   1.531       .  S
C645        C652   1.544       .  S
C647        C650   1.368       .  D
C647        C744   1.488       .  S
C648        C651   1.381       .  D
C648        C854   1.504       .  S
C649        C652   1.383       .  D
C649        C657   1.491       .  S
C650        C817   1.484       .  S
C651        C787   1.486       .  S
C652        C677   1.503       .  S
C653        C654   1.406       .  A
C653        C658   1.403       .  A
C653        H660   1.083       .  S
C654        C655   1.411       .  A
C655        C656   1.396       .  A
C655       Br662   1.920       .  S
C656        C657   1.403       .  A
C656        H661   1.082       .  S
C657        C658   1.412       .  A
C658       Br659   1.920       .  S
C663        C664   1.406       .  A
C663        C668   1.400   1_655  A
C663        H670   1.083       .  S
C664        C665   1.415       .  A
C665        C666   1.402   1_655  A
C665       Br672   1.921       .  S
C666        C667   1.407       .  A
C666        H671   1.083       .  S
C667        C668   1.416       .  A
C668       Br669   1.923       .  S
C673        C674   1.403       .  A
C673        C678   1.397       .  A
C673        H680   1.083       .  S
C674        C675   1.412       .  A
C675        C676   1.400       .  A
C675       Br682   1.921       .  S
C676        C677   1.408       .  A
C676        H681   1.076       .  S
C677        C678   1.416       .  A
C678       Br679   1.914       .  S
C683        C684   1.404       .  A
C683        H690   1.084       .  S
C684        C685   1.411       .  A
C685       Br692   1.923       .  S
C686        C687   1.407       .  A
C686        H691   1.083       .  S
C687        C688   1.417       .  A
C688       Br689   1.920       .  S
C693        C694   1.405       .  A
C693        C698   1.398   1_545  A
C693        H700   1.083       .  S
C694        C695   1.413       .  A
C695        C696   1.400   1_545  A
C695       Br702   1.922       .  S
C696        C697   1.407       .  A
C696        H701   1.083       .  S
C697        C698   1.415       .  A
C698       Br699   1.923       .  S
C703        C704   1.405       .  A
C703        H710   1.084       .  S
C704        C705   1.413       .  A
C705       Br712   1.922       .  S
C706        C707   1.406       .  A
C706        H711   1.084       .  S
C707        C708   1.414       .  A
C708       Br709   1.920       .  S
C713        C714   1.406       .  A
C713        C718   1.399   1_455  A
C713        H720   1.083       .  S
C714        C715   1.416       .  A
C715        C716   1.403   1_455  A
C715       Br722   1.922       .  S
C716        C717   1.406       .  A
C716        H721   1.083       .  S
C717        C718   1.415       .  A
C718       Br719   1.923       .  S
C723        C724   1.405       .  A
C723        C728   1.402   1_565  A
C723        H730   1.084       .  S
C724        C725   1.412       .  A
C725        C726   1.397   1_565  A
C725       Br732   1.922       .  S
C726        C727   1.405       .  A
C726        H731   1.083       .  S
C727        C728   1.416       .  A
C728       Br729   1.922       .  S
C733        C734   1.407       .  A
C733        H740   1.083       .  S
C734        C735   1.416       .  A
C735       Br742   1.924       .  S
C736        C737   1.404       .  A
C736        H741   1.083       .  S
C737        C738   1.416       .  A
C738       Br739   1.922       .  S
C743        C744   1.403       .  A
C743        C748   1.399       .  A
C743        H750   1.069       .  S
C744        C745   1.407       .  A
C745        C746   1.401       .  A
C745       Br752   1.909       .  S
C746        C747   1.404       .  A
C746        H751   1.078       .  S
C747        C748   1.408       .  A
C748       Br749   1.920       .  S
C753        C754   1.404       .  A
C753        C758   1.399       .  A
C753        H760   1.084       .  S
C754        C755   1.410       .  A
C755        C756   1.397       .  A
C755       Br762   1.921       .  S
C756        C757   1.404       .  A
C756        H761   1.083       .  S
C757        C758   1.411       .  A
C758       Br759   1.920       .  S
C763        C764   1.406       .  A
C763        C768   1.395   1_455  A
C763        H770   1.083       .  S
C764        C765   1.415       .  A
C765        C766   1.399   1_455  A
C765       Br772   1.921       .  S
C766        C767   1.403       .  A
C766        H771   1.083       .  S
C767        C768   1.411       .  A
C768       Br769   1.923       .  S
C773        C774   1.406       .  A
C773        H780   1.083       .  S
C774        C775   1.416       .  A
C775       Br782   1.922       .  S
C776        C777   1.404       .  A
C776        H781   1.084       .  S
C777        C778   1.411       .  A
C778       Br779   1.922       .  S
C783        C784   1.406       .  A
C783        C788   1.402       .  A
C783        H790   1.083       .  S
C784        C785   1.412       .  A
C785        C786   1.399       .  A
C785       Br792   1.921       .  S
C786        C787   1.401       .  A
C786        H791   1.079       .  S
C787        C788   1.407       .  A
C788       Br789   1.916       .  S
C793        C794   1.407       .  A
C793        C798   1.402       .  A
C793        H800   1.084       .  S
C794        C795   1.416       .  A
C795        C796   1.397       .  A
C795       Br802   1.923       .  S
C796        C797   1.405       .  A
C796        H801   1.083       .  S
C797        C798   1.415       .  A
C798       Br799   1.922       .  S
C803        C804   1.405       .  A
C803        C808   1.396   1_545  A
C803        H810   1.084       .  S
C804        C805   1.415       .  A
C805        C806   1.402   1_545  A
C805       Br812   1.921       .  S
C806        C807   1.406       .  A
C806        H811   1.083       .  S
C807        C808   1.414       .  A
C808       Br809   1.924       .  S
C813        C814   1.403       .  A
C813        C818   1.397       .  A
C813        H820   1.080       .  S
C814        C815   1.412       .  A
C815        C816   1.398       .  A
C815       Br822   1.921       .  S
C816        C817   1.402       .  A
C816        H821   1.071       .  S
C817        C818   1.408       .  A
C818       Br819   1.910       .  S
C823        C824   1.404       .  A
C823        H830   1.084       .  S
C824        C825   1.415       .  A
C825       Br832   1.920       .  S
C826        C827   1.405       .  A
C826        H831   1.084       .  S
C827        C828   1.413       .  A
C828       Br829   1.923       .  S
C833        C834   1.407       .  A
C833        C838   1.400   1_655  A
C833        H840   1.083       .  S
C834        C835   1.416       .  A
C835        C836   1.397   1_655  A
C835       Br842   1.922       .  S
C836        C837   1.405       .  A
C836        H841   1.083       .  S
C837        C838   1.414       .  A
C838       Br839   1.922       .  S
C843        C844   1.406       .  A
C843        C848   1.400       .  A
C843        H850   1.083       .  S
C844        C845   1.412       .  A
C845        C846   1.400       .  A
C845       Br852   1.921       .  S
C846        C847   1.406       .  A
C846        H851   1.084       .  S
C847        C848   1.413       .  A
C848       Br849   1.921       .  S
C853        C854   1.409       .  A
C853        C858   1.403       .  A
C853        H860   1.080       .  S
C854        C855   1.417       .  A
C855        C856   1.396       .  A
C855       Br862   1.908       .  S
C856        C857   1.400       .  A
C856        H861   1.084       .  S
C857        C858   1.413       .  A
C858       Br859   1.920       .  S
C863        C864   1.406       .  A
C863        C868   1.402   1_565  A
C863        H870   1.084       .  S
C864        C865   1.414       .  A
C865        C866   1.395   1_565  A
C865       Br872   1.924       .  S
C866        C867   1.403       .  A
C866        H871   1.084       .  S
C867        C868   1.413       .  A
C868       Br869   1.921       .  S
C873        C874   1.405       .  A
C873        H880   1.083       .  S
C874        C875   1.416       .  A
C875       Br882   1.921       .  S
C876        C877   1.407       .  A
C876        H881   1.083       .  S
C877        C878   1.414       .  A
C878       Br879   1.923       .  S
C883        C884   1.406       .  A
C883        C888   1.398       .  A
C883        H890   1.083       .  S
C884        C885   1.416       .  A
C885        C886   1.401       .  A
C885       Br892   1.921       .  S
C886        C887   1.405       .  A
C886        H891   1.083       .  S
C887        C888   1.415       .  A
C888       Br889   1.923       .  S
C893        C894   1.402       .  A
C893        C898   1.395       .  A
C893        H900   1.084       .  S
C894        C895   1.413       .  A
C895        C896   1.399       .  A
C895       Br902   1.920       .  S
C896        C897   1.403       .  A
C896        H901   1.084       .  S
C897        C898   1.410       .  A
C898       Br899   1.912       .  S
C903        C904   1.401       .  A
C903        C908   1.396       .  A
C903        H910   1.084       .  S
C904        C905   1.406       .  A
C905        C906   1.399       .  A
C905       Br912   1.918       .  S
C906        C907   1.406       .  A
C906        H911   1.083       .  S
C907        C908   1.413       .  A
C908       Br909   1.922       .  S
C913        C914   1.403       .  A
C913        C918   1.397       .  A
C913        H920   1.084       .  S
C914        C915   1.412       .  A
C915        C916   1.398       .  A
C915       Br922   1.917       .  S
C916        C917   1.403       .  A
C916        H921   1.084       .  S
C917        C918   1.409       .  A
C918       Br919   1.920       .  S
C923        C924   1.404       .  A
C923        C928   1.399       .  A
C923        H930   1.084       .  S
C924        C925   1.411       .  A
C925        C926   1.399       .  A
C925       Br932   1.912       .  S
C926        C927   1.404       .  A
C926        H931   1.084       .  S
C927        C928   1.411       .  A
C928       Br929   1.919       .  S
C933        C934   1.404       .  A
C933        C938   1.399       .  A
C933        H940   1.083       .  S
C934        C935   1.410       .  A
C935        C936   1.397       .  A
C935       Br942   1.920       .  S
C936        C937   1.402       .  A
C936        H941   1.083       .  S
C937        C938   1.409       .  A
C938       Br939   1.916       .  S
C943        C944   1.402       .  A
C943        C948   1.398       .  A
C943        H950   1.083       .  S
C944        C945   1.412       .  A
C945        C946   1.401       .  A
C945       Br952   1.919       .  S
C946        C947   1.406       .  A
C946        H951   1.082       .  S
C947        C948   1.413       .  A
C948       Br949   1.916       .  S
