geometry optimzed in LAMMPS
_audit_creation_date              2020-11-30 
_audit_creation_method            'lammps2cif' 
_symmetry_space_group_name_H-M    'P1' 
_symmetry_Int_Tables_number       1 
_symmetry_cell_setting            triclinic 
loop_ 
_symmetry_equiv_pos_as_xyz 
  x,y,z 
_cell_length_a                    45.74015796 
_cell_length_b                    45.8189877713691 
_cell_length_c                    43.08214057302218 
_cell_angle_alpha                 89.94483974684468 
_cell_angle_beta                  90.06958612736669 
_cell_angle_gamma                 89.97259452958218 
loop_ 
_atom_site_label 
_atom_site_type_symbol 
_atom_site_fract_x 
_atom_site_fract_y 
_atom_site_fract_z 
_atom_site_charge 
O1          O  0.45878767  0.97145466  0.47136629    -0.71800
O2          O  0.46044798  0.03400107  0.02939195    -0.72000
O3          O  0.46070023  0.02993298  0.46719104    -0.71900
O4          O  0.45816911  0.97539672  0.03360980    -0.71900
O5          O  0.50552633  0.97231732  0.03267950    -0.71800
O6          O  0.50814105  0.02985053  0.46911815    -0.71900
O7          O  0.50774537  0.03110587  0.03103919    -0.71800
O8          O  0.50620128  0.97105375  0.47077230    -0.72000
V9          V  0.46042085  0.00268761  0.50041568     1.35200
V10         V  0.50597873  0.00112329  0.00090669     1.35200
C11         C  0.48230625  0.96059369  0.46110679     0.77400
C12         C  0.48447064  0.04320807  0.04017870     0.77500
C13         C  0.48479878  0.03948659  0.45712270     0.77400
C14         C  0.48138515  0.96387219  0.04383768     0.77300
C15         C  0.50413842  0.22472202  0.25019676     0.03100
C16         C  0.50294405  0.20869836  0.27793893    -0.13000
C17         C  0.50027806  0.17817551  0.27717818     0.00600
C18         C  0.49942474  0.16392529  0.24841586    -0.11600
C19         C  0.50178764  0.17958821  0.22059674     0.03100
C20         C  0.50374762  0.21011698  0.22158074    -0.11000
H21         H  0.50388118  0.22002357  0.29998384     0.08700
H22         H  0.49665644  0.14043860  0.24765356     0.06200
H23         H  0.50514346  0.22249995  0.20018506     0.06100
C24         C  0.49374480  0.77767852  0.25131130     0.03100
C25         C  0.49443966  0.79225149  0.28005951    -0.13000
C26         C  0.49217254  0.82271623  0.28149758     0.00600
C27         C  0.48893956  0.83867909  0.25397170    -0.11600
C28         C  0.48977065  0.82491688  0.22486949     0.03100
C29         C  0.49191181  0.79423905  0.22374425    -0.11000
H30         H  0.49708202  0.77991650  0.30135291     0.08700
H31         H  0.48575120  0.86207404  0.25534544     0.06200
H32         H  0.49207412  0.78324082  0.20150100     0.06100
O33         O  0.97469768  0.52166359  0.46913405    -0.71800
O34         O  0.03439309  0.51824427  0.03023044    -0.72000
O35         O  0.03359829  0.52205242  0.46795753    -0.71900
O36         O  0.97588924  0.51782416  0.03114379    -0.71900
O37         O  0.97474414  0.47068963  0.02647297    -0.71800
O38         O  0.03495849  0.47475126  0.46593762    -0.71900
O39         O  0.03364339  0.47092547  0.02823888    -0.71800
O40         O  0.97639980  0.47450236  0.46429905    -0.72000
V41         V  0.00468000  0.51903155  0.49950311     1.35200
V42         V  0.00495313  0.47361600  0.99632921     1.35200
C43         C  0.96543164  0.49868674  0.45626981     0.77400
C44         C  0.04379107  0.49402919  0.04018265     0.77500
C45         C  0.04421870  0.49908684  0.45618434     0.77400
C46         C  0.96516616  0.49357460  0.03931609     0.77300
C47         C  0.22928144  0.49630082  0.24816341     0.03100
C48         C  0.21428213  0.50100356  0.27619762    -0.13000
C49         C  0.18359910  0.50215950  0.27678064     0.00600
C50         C  0.16797464  0.49788709  0.24908716    -0.11600
C51         C  0.18258232  0.49280322  0.22098872     0.03100
C52         C  0.21326388  0.49223140  0.22063937    -0.11000
H53         H  0.22651757  0.50423132  0.29747794     0.08700
H54         H  0.14429021  0.49840470  0.24940236     0.06200
H55         H  0.22465341  0.48817768  0.19902404     0.06100
C56         C  0.78118825  0.50243598  0.24798665     0.03100
C57         C  0.79638135  0.49891211  0.21998753    -0.13000
C58         C  0.82706654  0.49834698  0.21978237     0.00600
C59         C  0.84225516  0.50227390  0.24780702    -0.11600
C60         C  0.82725918  0.50574928  0.27594799     0.03100
C61         C  0.79660882  0.50557013  0.27591148    -0.11000
H62         H  0.78429229  0.49598131  0.19856599     0.08700
H63         H  0.86593810  0.50221552  0.24779912     0.06200
H64         H  0.78473977  0.50803516  0.29751397     0.06100
O65         O  0.46432795  0.49887047  0.22972244    -0.71800
O66         O  0.54719705  0.50071540  0.22928437    -0.72000
O67         O  0.50675678  0.45857156  0.23095731    -0.71900
O68         O  0.50489902  0.54125299  0.22791901    -0.71900
O69         O  0.50448060  0.54306616  0.27816124    -0.71800
O70         O  0.50765009  0.45985030  0.28123400    -0.71900
O71         O  0.54754288  0.50310896  0.27959259    -0.71800
O72         O  0.46447707  0.49993706  0.28000236    -0.72000
V73         V  0.50578939  0.49990797  0.23048899     1.35200
V74         V  0.50602338  0.50145311  0.27882202     1.35200
C75         C  0.45013964  0.49887964  0.25490711     0.77400
C76         C  0.56154259  0.50239556  0.25431137     0.77500
C77         C  0.50771827  0.44495172  0.25647273     0.77400
C78         C  0.50426870  0.55643478  0.25238711     0.77300
C79         C  0.74902894  0.50230218  0.24820075    -0.19900
C80         C  0.73346869  0.47687681  0.25619433     0.36300
C81         C  0.70278795  0.47766276  0.25675060    -0.25900
C82         C  0.68766035  0.50339732  0.24951856     0.02800
C83         C  0.70322902  0.52877234  0.24130266     0.27600
C84         C  0.73392335  0.52797865  0.24072914    -0.25000
N85         N  0.74894797  0.45053176  0.26389883    -0.82400
H86         H  0.69057874  0.45825064  0.26294463     0.13400
C87         C  0.65541522  0.50337542  0.25050205     0.02700
N88         N  0.68776120  0.55513260  0.23364029    -0.80900
H89         H  0.74614878  0.54739594  0.23458863     0.18200
C90         C  0.64109037  0.51672667  0.27545394    -0.25800
C91         C  0.61040406  0.51683460  0.27731565     0.36200
C92         C  0.59388478  0.50315676  0.25367501    -0.19800
C93         C  0.60844761  0.49002068  0.22860239    -0.25100
C94         C  0.63907190  0.48998156  0.22680525     0.27600
H95         H  0.65395483  0.52709697  0.29347518     0.13400
N96         N  0.59606321  0.53112704  0.30279876    -0.82300
H97         H  0.59588902  0.47950251  0.21044430     0.18200
N98         N  0.65370828  0.47637364  0.20108953    -0.80900
H99         H  0.61142522  0.53975862  0.31826052     0.31200
H100        H  0.58443978  0.54886248  0.29374722     0.38400
H101        H  0.63852397  0.46726156  0.18574942     0.33800
H102        H  0.66466428  0.49273848  0.18881098     0.30500
H103        H  0.70245904  0.57187411  0.22833689     0.33800
H104        H  0.67570757  0.55114710  0.21344561     0.30500
H105        H  0.76009517  0.44370758  0.24401456     0.38400
H106        H  0.73425927  0.43387214  0.26953408     0.33900
C107        C  0.41762375  0.49737684  0.25453544    -0.19900
C108        C  0.40032933  0.50431875  0.28078991     0.36300
C109        C  0.36966429  0.50296847  0.27850875    -0.25900
C110        C  0.35587393  0.49463964  0.25081758     0.02800
C111        C  0.37296485  0.48759374  0.22472409     0.27600
C112        C  0.40357305  0.48915542  0.22680316    -0.25000
N113        N  0.41370543  0.51341709  0.30940417    -0.82400
H114        H  0.35634678  0.50860276  0.29841354     0.13400
C115        C  0.32345108  0.49396245  0.24938766     0.02700
N116        N  0.35913522  0.47875062  0.19626319    -0.80900
H117        H  0.41652696  0.48365594  0.20660227     0.18200
C118        C  0.30878395  0.51278492  0.22892123    -0.25800
C119        C  0.27807095  0.51379565  0.22794915     0.36200
C120        C  0.26173253  0.49548616  0.24781617    -0.19800
C121        C  0.27646470  0.47638668  0.26799845    -0.25100
C122        C  0.30717572  0.47526346  0.26879532     0.27600
H123        H  0.32140294  0.52717576  0.21413028     0.13400
N124        N  0.26343064  0.53378453  0.20740427    -0.82300
H125        H  0.26390601  0.46212022  0.28298216     0.18200
N126        N  0.32195274  0.45513423  0.28906911    -0.80900
H127        H  0.27860225  0.54559252  0.19430410     0.33900
H128        H  0.25223974  0.54893015  0.22109884     0.38400
H129        H  0.30683758  0.44292866  0.30182260     0.33800
H130        H  0.33337038  0.44033822  0.27514397     0.30500
H131        H  0.37477795  0.47449470  0.17917532     0.33800
H132        H  0.34832531  0.45905105  0.20051879     0.30500
H133        H  0.42388560  0.49513127  0.31911984     0.38400
H134        H  0.39781329  0.51994930  0.32538865     0.33900
C135        C  0.06600673  0.49275276  0.06525851    -0.19900
C136        C  0.06858683  0.51533549  0.08747364     0.36300
C137        C  0.09010326  0.51333825  0.11066072    -0.25900
C138        C  0.10875270  0.48914624  0.11248044     0.02800
C139        C  0.10625918  0.46655396  0.09050788     0.27600
C140        C  0.08480025  0.46850970  0.06715370    -0.25000
N141        N  0.04893257  0.53984253  0.08694714    -0.82400
H142        H  0.09199231  0.53045951  0.12789117     0.13400
C143        C  0.13004626  0.48764465  0.13835428     0.02700
N144        N  0.12559558  0.44185699  0.09197141    -0.80900
H145        H  0.08296558  0.45119942  0.05014682     0.18200
C146        C  0.12511621  0.46806188  0.16280410    -0.25800
C147        C  0.14270281  0.46858889  0.18959616     0.36200
C148        C  0.16559204  0.48918880  0.19187006    -0.19800
C149        C  0.17133387  0.50779253  0.16669696    -0.25100
C150        C  0.15370852  0.50725573  0.13995367     0.27600
H151        H  0.10694132  0.45295774  0.16133035     0.13400
N152        N  0.13723009  0.44857881  0.21464707    -0.82300
H153        H  0.18897287  0.52349367  0.16839326     0.18200
N154        N  0.15924407  0.52696282  0.11466273    -0.80900
H155        H  0.11954781  0.43499649  0.20938153     0.33900
H156        H  0.15556273  0.43508197  0.21677264     0.38400
H157        H  0.17731655  0.54015563  0.11954885     0.33800
H158        H  0.16482409  0.51438093  0.09531988     0.30500
H159        H  0.12088668  0.42712911  0.07413272     0.33800
H160        H  0.14681752  0.44946203  0.08799323     0.30500
H161        H  0.02795536  0.53198087  0.09170718     0.38400
H162        H  0.05402298  0.55456283  0.10469084     0.33900
C163        C  0.16754885  0.50632030  0.30643298    -0.19900
C164        C  0.14465773  0.52691967  0.30903161     0.36300
C165        C  0.12711249  0.52708315  0.33580612    -0.25900
C166        C  0.13224819  0.50735151  0.36008408     0.02800
C167        C  0.15634061  0.48824774  0.35851516     0.27600
C168        C  0.17378844  0.48789806  0.33166661    -0.25000
N169        N  0.13908075  0.54724773  0.28427858    -0.82400
H170        H  0.10875126  0.54196830  0.33734920     0.13400
C171        C  0.11072214  0.50518240  0.38565992     0.02700
N172        N  0.16244859  0.46880016  0.38390250    -0.80900
H173        H  0.19153643  0.47232198  0.32987661     0.18200
C174        C  0.09287389  0.48038575  0.38731306    -0.25800
C175        C  0.07084381  0.47796745  0.40987480     0.36200
C176        C  0.06694320  0.50072673  0.43166488    -0.19800
C177        C  0.08497901  0.52553743  0.42995910    -0.25100
C178        C  0.10691210  0.52792922  0.40721871     0.27600
H179        H  0.09571648  0.46315601  0.37035819     0.13400
N180        N  0.05199584  0.45285497  0.41014878    -0.82300
H181        H  0.08216365  0.54299811  0.44663228     0.18200
N182        N  0.12539504  0.55325706  0.40593915    -0.80900
H183        H  0.05802987  0.43808597  0.39280250     0.33900
H184        H  0.03090531  0.45999008  0.40460826     0.38400
H185        H  0.11975135  0.56804000  0.42340758     0.33800
H186        H  0.14676966  0.54643379  0.41063542     0.30500
H187        H  0.18085435  0.45605160  0.37907484     0.33800
H188        H  0.16776415  0.48161310  0.40316911     0.30500
H189        H  0.15740193  0.56075818  0.28233118     0.38400
H190        H  0.12141420  0.56077728  0.28976660     0.33900
C191        C  0.94243629  0.49236426  0.06376248    -0.19900
C192        C  0.92035036  0.47072219  0.06422164     0.36300
C193        C  0.89901100  0.47136343  0.08774261    -0.25900
C194        C  0.89977336  0.49268844  0.11099706     0.02800
C195        C  0.92209859  0.51382513  0.11100366     0.27600
C196        C  0.94289631  0.51373957  0.08710465    -0.25000
N197        N  0.91921837  0.44860718  0.04060243    -0.82400
H198        H  0.88200980  0.45490545  0.08831384     0.13400
C199        C  0.87854031  0.49152592  0.13674904     0.02700
N200        N  0.92423199  0.53453020  0.13598865    -0.80900
H201        H  0.96002482  0.53007380  0.08712519     0.18200
C202        C  0.88471700  0.47349793  0.16214676    -0.25800
C203        C  0.86725100  0.47422498  0.18888102     0.36200
C204        C  0.84354307  0.49400317  0.19044510    -0.19800
C205        C  0.83639404  0.51079329  0.16418138    -0.25100
C206        C  0.85362485  0.50961483  0.13719323     0.27600
H207        H  0.90363719  0.45927016  0.16130246     0.13400
N208        N  0.87359852  0.45511918  0.21452137    -0.82300
H209        H  0.81795057  0.52561120  0.16510645     0.18200
N210        N  0.84593723  0.52659563  0.11029912    -0.80900
H211        H  0.89177157  0.44205363  0.20966256     0.33900
H212        H  0.85579676  0.44103254  0.21714195     0.38400
H213        H  0.82668932  0.53831758  0.11429473     0.33800
H214        H  0.86236813  0.54202442  0.10659929     0.30500
H215        H  0.94250736  0.54794642  0.13306815     0.33800
H216        H  0.90596461  0.54818047  0.13499964     0.30500
H217        H  0.93688589  0.43454508  0.04428554     0.38400
H218        H  0.90043392  0.43582930  0.04313357     0.33900
C219        C  0.94272292  0.50002847  0.43202248    -0.19900
C220        C  0.91701225  0.51674227  0.43588074     0.36300
C221        C  0.89615195  0.51745593  0.41189027    -0.25900
C222        C  0.90090367  0.50230045  0.38415363     0.02800
C223        C  0.92641529  0.48547442  0.38035720     0.27600
C224        C  0.94697475  0.48423020  0.40453097    -0.25000
N225        N  0.91179763  0.53221228  0.46436397    -0.82400
H226        H  0.87639877  0.53028249  0.41452259     0.13400
C227        C  0.87979189  0.50523735  0.35844606     0.02700
N228        N  0.93153165  0.47025633  0.35169881    -0.80900
H229        H  0.96673744  0.47145380  0.40165668     0.18200
C230        C  0.88559246  0.52552347  0.33494847    -0.25800
C231        C  0.86771725  0.52722621  0.30852366     0.36200
C232        C  0.84391958  0.50779607  0.30540628    -0.19800
C233        C  0.83731471  0.48848703  0.32977118    -0.25100
C234        C  0.85512159  0.48699288  0.35633455     0.27600
H235        H  0.90445046  0.53970229  0.33705627     0.13400
N236        N  0.87375082  0.54838307  0.28471304    -0.82300
H237        H  0.81898878  0.47366603  0.32745695     0.18200
N238        N  0.84865096  0.46670904  0.38085557    -0.80900
H239        H  0.89207045  0.56088500  0.29053585     0.33900
H240        H  0.85599179  0.56273007  0.28376365     0.38400
H241        H  0.82956863  0.45506924  0.37581874     0.33800
H242        H  0.86562009  0.45143978  0.38172973     0.30500
H243        H  0.95156550  0.45927902  0.35243242     0.33800
H244        H  0.91535838  0.45428079  0.34945043     0.30500
H245        H  0.92670840  0.54945172  0.46546135     0.38400
H246        H  0.89103123  0.54176150  0.46413062     0.33900
C247        C  0.50348439  0.58900787  0.25096158    -0.19900
C248        C  0.49894793  0.60437295  0.22273973     0.36300
C249        C  0.49858068  0.63510895  0.22279626    -0.25900
C250        C  0.50255501  0.65100570  0.25027047     0.02800
C251        C  0.50750830  0.63581915  0.27830540     0.27600
C252        C  0.50770315  0.60509868  0.27839819    -0.25000
N253        N  0.49437633  0.58890182  0.19412032    -0.82400
H254        H  0.49449630  0.64678479  0.20133972     0.13400
C255        C  0.50033162  0.68349205  0.24963819     0.02700
N256        N  0.51256297  0.65171530  0.30656436    -0.80900
H257        H  0.51148367  0.59369170  0.30006963     0.18200
C258        C  0.47961258  0.69728443  0.26862036    -0.25800
C259        C  0.47676448  0.72783045  0.26911118     0.36200
C260        C  0.49518547  0.74516588  0.25028336    -0.19800
C261        C  0.51548528  0.73133589  0.23071535    -0.25100
C262        C  0.51833121  0.70069905  0.23028005     0.27600
H263        H  0.46537739  0.68405423  0.28296971     0.13400
N264        N  0.45495584  0.74128912  0.28839298    -0.82300
H265        H  0.52967155  0.74453485  0.21628519     0.18200
N266        N  0.53972634  0.68703240  0.21066245    -0.80900
H267        H  0.44334258  0.72553447  0.30088257     0.33900
H268        H  0.43990699  0.75162956  0.27377287     0.38400
H269        H  0.55111911  0.70270275  0.19782559     0.33800
H270        H  0.55504094  0.67678763  0.22504702     0.30500
H271        H  0.51577465  0.63739390  0.32516529     0.33800
H272        H  0.53204131  0.66337972  0.30387461     0.30500
H273        H  0.47422126  0.57825664  0.19575471     0.38400
H274        H  0.49261402  0.60343614  0.17548477     0.33900
C275        C  0.50513774  0.25687781  0.25110825    -0.19900
C276        C  0.47999703  0.27352958  0.24445689     0.36300
C277        C  0.48154567  0.30411466  0.24587910    -0.25900
C278        C  0.50777737  0.31825840  0.25357498     0.02800
C279        C  0.53296208  0.30154572  0.26012340     0.27600
C280        C  0.53131576  0.27090655  0.25907586    -0.25000
N281        N  0.45286473  0.25926381  0.23710429    -0.82400
H282        H  0.46223014  0.31704860  0.24102050     0.13400
C283        C  0.50851811  0.35063000  0.25424050     0.02700
N284        N  0.56009441  0.31579038  0.26744862    -0.80900
H285        H  0.55053165  0.25788901  0.26413560     0.18200
C286        C  0.51436424  0.36517223  0.28219745    -0.25800
C287        C  0.51468621  0.39589225  0.28372084     0.36200
C288        C  0.50855258  0.41241081  0.25665872    -0.19800
C289        C  0.50298424  0.39755399  0.22866972    -0.25100
C290        C  0.50306529  0.36695343  0.22715735     0.27600
H291        H  0.51864741  0.35243495  0.30291994     0.13400
N292        N  0.52137001  0.41016701  0.31256051    -0.82300
H293        H  0.49842750  0.40984505  0.20772647     0.18200
N294        N  0.49773511  0.35232215  0.19817966    -0.80900
H295        H  0.52454793  0.39483351  0.33023975     0.33900
H296        H  0.54133914  0.42094163  0.30972866     0.38400
H297        H  0.49395808  0.36745368  0.18043459     0.33800
H298        H  0.51679946  0.34104522  0.19224561     0.30500
H299        H  0.57648521  0.30037870  0.27171976     0.33800
H300        H  0.56657709  0.32755305  0.24782238     0.30500
H301        H  0.45549196  0.24866035  0.21582200     0.38400
H302        H  0.43623197  0.27463837  0.23389583     0.33900
C303        C  0.50157337  0.16369346  0.19068220    -0.19900
C304        C  0.52030111  0.13962360  0.18575184     0.36300
C305        C  0.51732504  0.12303551  0.15861756    -0.25900
C306        C  0.49640944  0.13028416  0.13609079     0.02800
C307        C  0.47861045  0.15509898  0.14026605     0.27600
C308        C  0.48133240  0.17158109  0.16762556    -0.25000
N309        N  0.54207963  0.13200417  0.20846876    -0.82400
H310        H  0.53096868  0.10395162  0.15527382     0.13400
C311        C  0.49249681  0.11054338  0.10921676     0.02700
N312        N  0.45766952  0.16317111  0.11688260    -0.80900
H313        H  0.46705599  0.19011757  0.17140236     0.18200
C314        C  0.46563914  0.09630457  0.10519649    -0.25800
C315        C  0.46191710  0.07499073  0.08208420     0.36200
C316        C  0.48586595  0.06746019  0.06292965    -0.19800
C317        C  0.51246278  0.08252419  0.06644983    -0.25100
C318        C  0.51595635  0.10408655  0.08925103     0.27600
H319        H  0.44774019  0.10128857  0.12077692     0.13400
N320        N  0.43434493  0.06021575  0.07904557    -0.82300
H321        H  0.53076514  0.07727619  0.05151532     0.18200
N322        N  0.54333516  0.11918635  0.09256937    -0.80900
H323        H  0.41987651  0.06689217  0.09641308     0.33900
H324        H  0.42501589  0.06690282  0.05804212     0.38400
H325        H  0.55845085  0.11177030  0.07618686     0.33800
H326        H  0.53957184  0.14122753  0.08767106     0.30500
H327        H  0.44620647  0.18187936  0.12358044     0.33800
H328        H  0.46929869  0.16867533  0.09683747     0.30500
H329        H  0.55696355  0.14927459  0.20970452     0.38400
H330        H  0.55390035  0.11364684  0.20138829     0.33900
C331        C  0.49863373  0.16058654  0.30605336    -0.19900
C332        C  0.47839717  0.16701660  0.32986358     0.36300
C333        C  0.47661352  0.14846745  0.35584248    -0.25900
C334        C  0.49420245  0.12350081  0.35801839     0.02800
C335        C  0.51430367  0.11700298  0.33432020     0.27600
C336        C  0.51650897  0.13575557  0.30871702    -0.25000
N337        N  0.45915278  0.19170472  0.32712307    -0.82400
H338        H  0.46098855  0.15302808  0.37409480     0.13400
C339        C  0.49057809  0.10339584  0.38449311     0.02700
N340        N  0.53169834  0.09088412  0.33593334    -0.80900
H341        H  0.53201697  0.13077398  0.29047137     0.18200
C342        C  0.47024688  0.08066494  0.38211836    -0.25800
C343        C  0.46738612  0.05985791  0.40590365     0.36200
C344        C  0.48578048  0.06163496  0.43221241    -0.19800
C345        C  0.50592540  0.08465532  0.43461686    -0.25100
C346        C  0.50826867  0.10580672  0.41111209     0.27600
H347        H  0.45681668  0.07902870  0.36144772     0.13400
N348        N  0.44687465  0.03627115  0.40273507    -0.82300
H349        H  0.51974043  0.08620373  0.45500445     0.18200
N350        N  0.52827268  0.12983393  0.41422869    -0.80900
H351        H  0.43667680  0.03703831  0.38101486     0.33900
H352        H  0.43033115  0.03952148  0.41908126     0.38400
H353        H  0.53928508  0.12868693  0.43548292     0.33800
H354        H  0.54416823  0.12784702  0.39697348     0.30500
H355        H  0.54484133  0.08891484  0.31619923     0.33800
H356        H  0.54589764  0.09286671  0.35481961     0.30500
H357        H  0.44543713  0.18801473  0.30809523     0.38400
H358        H  0.44564029  0.19330315  0.34660633     0.33900
C359        C  0.48031566  0.94085510  0.06801294    -0.19900
C360        C  0.50090337  0.91784478  0.06846360     0.36300
C361        C  0.50008970  0.89720308  0.09261212    -0.25900
C362        C  0.47894700  0.89884932  0.11602596     0.02800
C363        C  0.45775026  0.92119108  0.11512091     0.27600
C364        C  0.45851512  0.94189029  0.09094721    -0.25000
N365        N  0.52246651  0.91543214  0.04434049    -0.82400
H366        H  0.51634071  0.88000521  0.09354938     0.13400
C367        C  0.48149564  0.87908224  0.14311841     0.02700
N368        N  0.43634404  0.92345188  0.13941217    -0.80900
H369        H  0.44259225  0.95940842  0.09053119     0.18200
C370        C  0.50062726  0.88694463  0.16702417    -0.25800
C371        C  0.50447118  0.86900090  0.19304763     0.36200
C372        C  0.48812687  0.84294906  0.19599807    -0.19800
C373        C  0.46955621  0.83463625  0.17145320    -0.25100
C374        C  0.46635178  0.85233007  0.14482237     0.27600
H375        H  0.51299904  0.90705447  0.16526352     0.13400
N376        N  0.52566501  0.87697773  0.21603539    -0.82300
H377        H  0.45720061  0.81454509  0.17323527     0.18200
N378        N  0.44837640  0.84298470  0.11931286    -0.80900
H379        H  0.52012817  0.89758185  0.22463196     0.33900
H380        H  0.54603320  0.87864486  0.20518493     0.38400
H381        H  0.43932232  0.82248522  0.12393052     0.33800
H382        H  0.43089401  0.85753633  0.11732249     0.30500
H383        H  0.42280720  0.94152040  0.13571765     0.33800
H384        H  0.42289867  0.90506228  0.13818573     0.30500
H385        H  0.51139227  0.91144893  0.02351419     0.38400
H386        H  0.53601224  0.89740556  0.04820716     0.33900
C387        C  0.49307523  0.83828087  0.31167273    -0.19900
C388        C  0.51312850  0.86122354  0.31673904     0.36300
C389        C  0.51136210  0.87767618  0.34414067    -0.25900
C390        C  0.49008319  0.87158795  0.36660858     0.02800
C391        C  0.47099463  0.84777492  0.36235418     0.27600
C392        C  0.47270656  0.83125862  0.33487361    -0.25000
N393        N  0.53493286  0.86793507  0.29380500    -0.82400
H394        H  0.52607667  0.89591988  0.34762288     0.13400
C395        C  0.48683177  0.89185823  0.39317474     0.02700
N396        N  0.44970160  0.84085473  0.38572812    -0.80900
H397        H  0.45749414  0.81349475  0.33105408     0.18200
C398        C  0.46157617  0.90910289  0.39518632    -0.25800
C399        C  0.45895360  0.93109389  0.41777725     0.36200
C400        C  0.48240176  0.93613725  0.43853922    -0.19800
C401        C  0.50727915  0.91812009  0.43702113    -0.25100
C402        C  0.50962619  0.89591374  0.41471168     0.27600
H403        H  0.44418058  0.90590647  0.37843159     0.13400
N404        N  0.43319147  0.94905882  0.41864491    -0.82300
H405        H  0.52510201  0.92148571  0.45322035     0.18200
N406        N  0.53517717  0.87766848  0.41354079    -0.80900
H407        H  0.41914108  0.94383913  0.40030726     0.33900
H408        H  0.42186181  0.94386288  0.43896278     0.38400
H409        H  0.55000378  0.88353671  0.43093666     0.33800
H410        H  0.52854750  0.85631321  0.41842203     0.30500
H411        H  0.43724516  0.82280069  0.37900677     0.33800
H412        H  0.46106481  0.83470214  0.40576880     0.30500
H413        H  0.54884749  0.84990054  0.29210353     0.38400
H414        H  0.54782563  0.88552596  0.30097479     0.33900
O415        O  0.45878849  0.97145364  0.97136311    -0.71800
O416        O  0.46045032  0.03400144  0.52939553    -0.72000
O417        O  0.46069838  0.02993228  0.96718726    -0.71900
O418        O  0.45816855  0.97539726  0.53361271    -0.71900
O419        O  0.50552562  0.97231531  0.53268253    -0.71800
O420        O  0.50813920  0.02985190  0.96911459    -0.71900
O421        O  0.50774752  0.03110402  0.53104299    -0.71800
O422        O  0.50620209  0.97105514  0.97076920    -0.72000
V423        V  0.46042010  0.00268698  0.00041226     1.35200
V424        V  0.50597941  0.00112171  0.50091009     1.35200
C425        C  0.48230764  0.96059369  0.96110379     0.77400
C426        C  0.48447332  0.04320737  0.54018240     0.77500
C427        C  0.48479660  0.03948707  0.95711915     0.77400
C428        C  0.48138388  0.96387115  0.54384021     0.77300
C429        C  0.50413649  0.22472563  0.75019698     0.03100
C430        C  0.50294117  0.20870252  0.77793929    -0.13000
C431        C  0.50027362  0.17817994  0.77717885     0.00600
C432        C  0.49941929  0.16392955  0.74841668    -0.11600
C433        C  0.50178383  0.17959196  0.72059738     0.03100
C434        C  0.50374521  0.21012061  0.72158104    -0.11000
H435        H  0.50387897  0.22002800  0.79998402     0.08700
H436        H  0.49664974  0.14044301  0.74765468     0.06200
H437        H  0.50514165  0.22250347  0.70018534     0.06100
C438        C  0.49374579  0.77767722  0.75130999     0.03100
C439        C  0.49444469  0.79225050  0.78005790    -0.13000
C440        C  0.49217669  0.82271514  0.78149604     0.00600
C441        C  0.48893983  0.83867758  0.75397044    -0.11600
C442        C  0.48976779  0.82491505  0.72486840     0.03100
C443        C  0.49190893  0.79423740  0.72374310    -0.11000
H444        H  0.49709047  0.77991586  0.80135105     0.08700
H445        H  0.48575094  0.86207246  0.75534412     0.06200
H446        H  0.49206834  0.78323907  0.70149988     0.06100
O447        O  0.97469587  0.52166598  0.96913440    -0.71800
O448        O  0.03439427  0.51824190  0.53023066    -0.72000
O449        O  0.03359641  0.52205505  0.96795724    -0.71900
O450        O  0.97589049  0.51782202  0.53114362    -0.71900
O451        O  0.97474494  0.47068752  0.52647257    -0.71800
O452        O  0.03495655  0.47475390  0.96593685    -0.71900
O453        O  0.03364398  0.47092313  0.52823957    -0.71800
O454        O  0.97639785  0.47450472  0.96429954    -0.72000
V455        V  0.00467851  0.51903391  0.99950314     1.35200
V456        V  0.00495443  0.47361364  0.49632932     1.35200
C457        C  0.96542962  0.49868910  0.95627036     0.77400
C458        C  0.04379177  0.49402681  0.54018328     0.77500
C459        C  0.04421645  0.49908956  0.95618349     0.77400
C460        C  0.96516724  0.49357252  0.53931590     0.77300
C461        C  0.22928083  0.49629742  0.74816506     0.03100
C462        C  0.21428101  0.50100165  0.77619869    -0.13000
C463        C  0.18359797  0.50215779  0.77678092     0.00600
C464        C  0.16797409  0.49788384  0.74908742    -0.11600
C465        C  0.18258227  0.49279856  0.72098966     0.03100
C466        C  0.21326380  0.49222653  0.72064092    -0.11000
H467        H  0.22651607  0.50423069  0.79747903     0.08700
H468        H  0.14428964  0.49840158  0.74940204     0.06200
H469        H  0.22465370  0.48817194  0.69902599     0.06100
C470        C  0.78118765  0.50243641  0.74798519     0.03100
C471        C  0.79638142  0.49891249  0.71998645    -0.13000
C472        C  0.82706665  0.49834661  0.71978212     0.00600
C473        C  0.84225467  0.50227342  0.74780716    -0.11600
C474        C  0.82725806  0.50574917  0.77594771     0.03100
C475        C  0.79660768  0.50557017  0.77591046    -0.11000
H476        H  0.78429282  0.49598188  0.69856457     0.08700
H477        H  0.86593762  0.50221483  0.74779992     0.06200
H478        H  0.78473818  0.50803521  0.79751268     0.06100
O479        O  0.46432699  0.49887086  0.72972258    -0.71800
O480        O  0.54719616  0.50071499  0.72928349    -0.72000
O481        O  0.50675548  0.45857188  0.73095783    -0.71900
O482        O  0.50489845  0.54125269  0.72791760    -0.71900
O483        O  0.50448176  0.54306688  0.77815985    -0.71800
O484        O  0.50764785  0.45985149  0.78123453    -0.71900
O485        O  0.54754247  0.50310816  0.77959170    -0.71800
O486        O  0.46447660  0.49993969  0.78000245    -0.72000
V487        V  0.50578846  0.49990798  0.73048857     1.35200
V488        V  0.50602291  0.50145406  0.77882159     1.35200
C489        C  0.45013894  0.49888142  0.75490741     0.77400
C490        C  0.56154198  0.50239459  0.75431037     0.77500
C491        C  0.50771604  0.44495260  0.75647356     0.77400
C492        C  0.50426926  0.55643484  0.75238539     0.77300
C493        C  0.74902825  0.50230228  0.74819861    -0.19900
C494        C  0.73346829  0.47687886  0.75619999     0.36300
C495        C  0.70278753  0.47766444  0.75675563    -0.25900
C496        C  0.68765963  0.50339674  0.74951547     0.02800
C497        C  0.70322787  0.52876984  0.74129197     0.27600
C498        C  0.73392225  0.52797646  0.74071876    -0.25000
N499        N  0.74894792  0.45053611  0.76391263    -0.82400
H500        H  0.69057855  0.45825382  0.76295551     0.13400
C501        C  0.65541461  0.50337463  0.75049939     0.02700
N502        N  0.68775958  0.55512801  0.73362241    -0.80900
H503        H  0.74614738  0.54739234  0.73457258     0.18200
C504        C  0.64109025  0.51672310  0.77545318    -0.25800
C505        C  0.61040401  0.51683064  0.77731566     0.36200
C506        C  0.59388425  0.50315534  0.75367369    -0.19800
C507        C  0.60844671  0.49002161  0.72859940    -0.25100
C508        C  0.63907099  0.48998270  0.72680167     0.27600
H509        H  0.65395505  0.52709158  0.79347532     0.13400
N510        N  0.59606372  0.53112008  0.80280102    -0.82300
H511        H  0.59588786  0.47950511  0.71044042     0.18200
N512        N  0.65370704  0.47637648  0.70108474    -0.80900
H513        H  0.61142605  0.53974966  0.81826371     0.31200
H514        H  0.58444029  0.54885669  0.79375214     0.38400
H515        H  0.63852253  0.46726539  0.68574418     0.33800
H516        H  0.66466288  0.49274211  0.68880724     0.30500
H517        H  0.70245714  0.57186847  0.72831432     0.33800
H518        H  0.67570583  0.55113746  0.71342896     0.30500
H519        H  0.76009550  0.44370686  0.74403057     0.38400
H520        H  0.73425946  0.43387773  0.76955270     0.33900
C521        C  0.41762306  0.49737888  0.75453627    -0.19900
C522        C  0.40032898  0.50432123  0.78079090     0.36300
C523        C  0.36966393  0.50297005  0.77851048    -0.25900
C524        C  0.35587328  0.49464032  0.75081976     0.02800
C525        C  0.37296389  0.48759461  0.72472595     0.27600
C526        C  0.40357205  0.48915685  0.72680440    -0.25000
N527        N  0.41370540  0.51342090  0.80940453    -0.82400
H528        H  0.35634666  0.50860444  0.79841543     0.13400
C529        C  0.32345045  0.49396238  0.74939035     0.02700
N530        N  0.35913397  0.47875116  0.69626533    -0.80900
H531        H  0.41652570  0.48365728  0.70660335     0.18200
C532        C  0.30878278  0.51278352  0.72892299    -0.25800
C533        C  0.27806980  0.51379302  0.72795052     0.36200
C534        C  0.26173191  0.49548381  0.74781829    -0.19800
C535        C  0.27646459  0.47638585  0.76800179    -0.25100
C536        C  0.30717565  0.47526369  0.76879888     0.27600
H537        H  0.32140131  0.52717420  0.71413142     0.13400
N538        N  0.26342893  0.53378042  0.70740443    -0.82300
H539        H  0.26390628  0.46211967  0.78298617     0.18200
N540        N  0.32195323  0.45513578  0.78907369    -0.80900
H541        H  0.27860021  0.54558837  0.69430377     0.33900
H542        H  0.25223733  0.54892626  0.72109807     0.38400
H543        H  0.30683842  0.44293028  0.80182772     0.33800
H544        H  0.33337136  0.44033954  0.77514929     0.30500
H545        H  0.37477646  0.47449567  0.67917710     0.33800
H546        H  0.34832458  0.45905134  0.70052113     0.30500
H547        H  0.42388607  0.49513562  0.81912082     0.38400
H548        H  0.39781344  0.51995346  0.82538900     0.33900
C549        C  0.06600711  0.49275014  0.56525942    -0.19900
C550        C  0.06858995  0.51533459  0.58747227     0.36300
C551        C  0.09010588  0.51333662  0.61065976    -0.25900
C552        C  0.10875226  0.48914240  0.61248206     0.02800
C553        C  0.10625602  0.46654850  0.59051176     0.27600
C554        C  0.08479754  0.46850487  0.56715724    -0.25000
N555        N  0.04893909  0.53984430  0.58694297    -0.82400
H556        H  0.09199698  0.53045918  0.62788849     0.13400
C557        C  0.13004583  0.48764056  0.63835586     0.02700
N558        N  0.12558935  0.44184927  0.59197780    -0.80900
H559        H  0.08296084  0.45119325  0.55015215     0.18200
C560        C  0.12511596  0.46805752  0.66280550    -0.25800
C561        C  0.14270290  0.46858414  0.68959729     0.36200
C562        C  0.16559238  0.48918376  0.69187095    -0.19800
C563        C  0.17133409  0.50778766  0.66669802    -0.25100
C564        C  0.15370830  0.50725139  0.63995511     0.27600
H565        H  0.10694089  0.45295359  0.66133193     0.13400
N566        N  0.13723016  0.44857416  0.71464830    -0.82300
H567        H  0.18897320  0.52348868  0.66839428     0.18200
N568        N  0.15924359  0.52695886  0.61466444    -0.80900
H569        H  0.11954760  0.43499210  0.70938301     0.33900
H570        H  0.15556262  0.43507708  0.71677375     0.38400
H571        H  0.17731618  0.54015151  0.61955047     0.33800
H572        H  0.16482317  0.51437725  0.59532122     0.30500
H573        H  0.12087876  0.42712045  0.57414049     0.33800
H574        H  0.14681226  0.44945137  0.58799905     0.30500
H575        H  0.02796080  0.53198605  0.59170384     0.38400
H576        H  0.05403147  0.55456566  0.60468507     0.33900
C577        C  0.16754695  0.50632037  0.80643244    -0.19900
C578        C  0.14465535  0.52691952  0.80902885     0.36300
C579        C  0.12710906  0.52708406  0.83580259    -0.25900
C580        C  0.13224424  0.50735370  0.86008180     0.02800
C581        C  0.15633702  0.48825029  0.85851506     0.27600
C582        C  0.17378588  0.48789952  0.83166736    -0.25000
N583        N  0.13907888  0.54724615  0.78427436    -0.82400
H584        H  0.10874749  0.54196895  0.83734412     0.13400
C585        C  0.11071758  0.50518536  0.88565696     0.02700
N586        N  0.16244416  0.46880401  0.88390375    -0.80900
H587        H  0.19153409  0.47232353  0.82987897     0.18200
C588        C  0.09286864  0.48038921  0.88730977    -0.25800
C589        C  0.07083926  0.47797086  0.90987223     0.36200
C590        C  0.06694004  0.50072963  0.93166319    -0.19800
C591        C  0.08497627  0.52554001  0.92995743    -0.25100
C592        C  0.10690874  0.52793179  0.90721640     0.27600
H593        H  0.09571046  0.46315975  0.87035444     0.13400
N594        N  0.05199075  0.45285878  0.91014627    -0.82300
H595        H  0.08216185  0.54300030  0.94663126     0.18200
N596        N  0.12539234  0.55325915  0.90593691    -0.80900
H597        H  0.05802374  0.43809016  0.89279920     0.33900
H598        H  0.03090013  0.45999448  0.90460701     0.38400
H599        H  0.11974951  0.56804184  0.92340588     0.33800
H600        H  0.14676689  0.54643518  0.91063239     0.30500
H601        H  0.18085028  0.45605541  0.87907767     0.33800
H602        H  0.16775874  0.48161795  0.90316989     0.30500
H603        H  0.15739992  0.56075681  0.78232686     0.38400
H604        H  0.12141192  0.56077567  0.78976085     0.33900
C605        C  0.94243762  0.49236217  0.56376264    -0.19900
C606        C  0.92035130  0.47072050  0.56422175     0.36300
C607        C  0.89901230  0.47136167  0.58774314    -0.25900
C608        C  0.89977540  0.49268620  0.61099805     0.02800
C609        C  0.92210112  0.51382236  0.61100478     0.27600
C610        C  0.94289847  0.51373691  0.58710538    -0.25000
N611        N  0.91921846  0.44860604  0.54060204    -0.82400
H612        H  0.88201070  0.45490409  0.58831423     0.13400
C613        C  0.87854206  0.49152425  0.63674987     0.02700
N614        N  0.92423535  0.53452680  0.63599027    -0.80900
H615        H  0.96002732  0.53007078  0.58712603     0.18200
C616        C  0.88471798  0.47349630  0.66214785    -0.25800
C617        C  0.86725150  0.47422383  0.68888180     0.36200
C618        C  0.84354382  0.49400240  0.69044526    -0.19800
C619        C  0.83639569  0.51079263  0.66418135    -0.25100
C620        C  0.85362705  0.50961381  0.63719360     0.27600
H621        H  0.90363792  0.45926816  0.66130400     0.13400
N622        N  0.87359830  0.45511812  0.71452243    -0.82300
H623        H  0.81795254  0.52561097  0.66510601     0.18200
N624        N  0.84594055  0.52659512  0.61029949    -0.80900
H625        H  0.89177125  0.44205230  0.70966408     0.33900
H626        H  0.85579632  0.44103172  0.71714276     0.38400
H627        H  0.82669291  0.53831761  0.61429473     0.33800
H628        H  0.86237200  0.54202350  0.60660033     0.30500
H629        H  0.94251105  0.54794260  0.63306988     0.33800
H630        H  0.90596830  0.54817753  0.63500186     0.30500
H631        H  0.93688584  0.43454357  0.54428446     0.38400
H632        H  0.90043387  0.43582844  0.54313330     0.33900
C633        C  0.94272078  0.50003085  0.93202313    -0.19900
C634        C  0.91700938  0.51674336  0.93588216     0.36300
C635        C  0.89614904  0.51745717  0.91189167    -0.25900
C636        C  0.90090142  0.50230305  0.88415429     0.02800
C637        C  0.92641391  0.48547849  0.88035703     0.27600
C638        C  0.94697341  0.48423414  0.90453079    -0.25000
N639        N  0.91179411  0.53221185  0.96436618    -0.82400
H640        H  0.87639530  0.53028274  0.91452463     0.13400
C641        C  0.87978937  0.50523968  0.85844686     0.02700
N642        N  0.93153114  0.47026206  0.85169782    -0.80900
H643        H  0.96673676  0.47145889  0.90165586     0.18200
C644        C  0.88558943  0.52552597  0.83494929    -0.25800
C645        C  0.86771469  0.52722775  0.80852403     0.36200
C646        C  0.84391787  0.50779666  0.80540632    -0.19800
C647        C  0.83731332  0.48848751  0.82977122    -0.25100
C648        C  0.85511987  0.48699413  0.85633492     0.27600
H649        H  0.90444687  0.53970550  0.83705730     0.13400
N650        N  0.87374799  0.54838450  0.78471321    -0.82300
H651        H  0.81898801  0.47366581  0.82745669     0.18200
N652        N  0.84864991  0.46670980  0.88085569    -0.80900
H653        H  0.89206707  0.56088715  0.79053625     0.33900
H654        H  0.85598850  0.56273086  0.78376319     0.38400
H655        H  0.82956824  0.45506911  0.87581850     0.33800
H656        H  0.86561980  0.45144134  0.88172991     0.30500
H657        H  0.95156554  0.45928576  0.85243089     0.33800
H658        H  0.91535869  0.45428577  0.84944852     0.30500
H659        H  0.92670441  0.54945162  0.96546465     0.38400
H660        H  0.89102743  0.54176048  0.96413314     0.33900
C661        C  0.50348545  0.58900758  0.75095921    -0.19900
C662        C  0.49894630  0.60437204  0.72273755     0.36300
C663        C  0.49857859  0.63510792  0.72279366    -0.25900
C664        C  0.50255611  0.65100498  0.75026717     0.02800
C665        C  0.50751285  0.63581890  0.77830175     0.27600
C666        C  0.50770727  0.60509858  0.77839508    -0.25000
N667        N  0.49437223  0.58890039  0.69411889    -0.82400
H668        H  0.49449134  0.64678333  0.70133747     0.13400
C669        C  0.50033218  0.68349115  0.74963487     0.02700
N670        N  0.51257139  0.65171531  0.80655981    -0.80900
H671        H  0.51148996  0.59369188  0.80006626     0.18200
C672        C  0.47961813  0.69728339  0.76862324    -0.25800
C673        C  0.47677023  0.72782927  0.76911517     0.36200
C674        C  0.49518628  0.74516471  0.75028190    -0.19800
C675        C  0.51548058  0.73133483  0.73070737    -0.25100
C676        C  0.51832628  0.70069810  0.73027094     0.27600
H677        H  0.46538666  0.68405320  0.78297677     0.13400
N678        N  0.45496670  0.74128768  0.78840369    -0.82300
H679        H  0.52966295  0.74453374  0.71627285     0.18200
N680        N  0.53971579  0.68703161  0.71064631    -0.80900
H681        H  0.44335699  0.72553295  0.80089684     0.33900
H682        H  0.43991378  0.75162807  0.77378823     0.38400
H683        H  0.55110463  0.70270199  0.69780556     0.33800
H684        H  0.55503470  0.67678704  0.72502586     0.30500
H685        H  0.51578522  0.63739418  0.82516051     0.33800
H686        H  0.53204956  0.66337946  0.80386708     0.30500
H687        H  0.47421730  0.57825527  0.69575544     0.38400
H688        H  0.49260842  0.60343436  0.67548319     0.33900
C689        C  0.50513554  0.25688105  0.75110840    -0.19900
C690        C  0.47999137  0.27353181  0.74446946     0.36300
C691        C  0.48153932  0.30411680  0.74589199    -0.25900
C692        C  0.50777356  0.31826088  0.75357668     0.02800
C693        C  0.53296180  0.30154940  0.76011222     0.27600
C694        C  0.53131649  0.27091032  0.75906388    -0.25000
N695        N  0.45285692  0.25926497  0.73712832    -0.82400
H696        H  0.46222154  0.31705032  0.74104226     0.13400
C697        C  0.50851369  0.35063187  0.75424246     0.02700
N698        N  0.56009633  0.31579534  0.76742539    -0.80900
H699        H  0.55053499  0.25789336  0.76411398     0.18200
C700        C  0.51435886  0.36517377  0.78219966    -0.25800
C701        C  0.51468105  0.39589368  0.78372291     0.36200
C702        C  0.50854933  0.41241199  0.75666013    -0.19800
C703        C  0.50298187  0.39755520  0.72867091    -0.25100
C704        C  0.50306220  0.36695478  0.72715892     0.27600
H705        H  0.51864131  0.35243631  0.80292221     0.13400
N706        N  0.52136304  0.41016852  0.81256302    -0.82300
H707        H  0.49842636  0.40984610  0.70772726     0.18200
N708        N  0.49773249  0.35232302  0.69818141    -0.80900
H709        H  0.52453932  0.39483507  0.83024264     0.33900
H710        H  0.54133258  0.42094270  0.80973277     0.38400
H711        H  0.49395640  0.36745431  0.68043589     0.33800
H712        H  0.51679675  0.34104550  0.69224822     0.30500
H713        H  0.57648983  0.30038437  0.77168773     0.33800
H714        H  0.56657002  0.32755939  0.74779674     0.30500
H715        H  0.45547686  0.24866131  0.71584507     0.38400
H716        H  0.43622242  0.27463887  0.73392664     0.33900
C717        C  0.50157121  0.16369662  0.69068321    -0.19900
C718        C  0.52029771  0.13962526  0.68575570     0.36300
C719        C  0.51732315  0.12303663  0.65862174    -0.25900
C720        C  0.49641063  0.13028629  0.63609219     0.02800
C721        C  0.47861307  0.15510263  0.64026451     0.27600
C722        C  0.48133332  0.17158524  0.66762390    -0.25000
N723        N  0.54207347  0.13200481  0.70847523    -0.82400
H724        H  0.53096555  0.10395149  0.65528042     0.13400
C725        C  0.49249931  0.11054470  0.60921864     0.02700
N726        N  0.45767526  0.16317574  0.61687831    -0.80900
H727        H  0.46705789  0.19012287  0.67139846     0.18200
C728        C  0.46564032  0.09630932  0.60519486    -0.25800
C729        C  0.46191872  0.07499468  0.58208339     0.36200
C730        C  0.48586933  0.06745967  0.56293321    -0.19800
C731        C  0.51246786  0.08252000  0.56645708    -0.25100
C732        C  0.51596105  0.10408324  0.58925743     0.27600
H733        H  0.44773974  0.10129671  0.62077195     0.13400
N734        N  0.43434476  0.06022366  0.57904106    -0.82300
H735        H  0.53077174  0.07726862  0.55152603     0.18200
N736        N  0.54334154  0.11917935  0.59257939    -0.80900
H737        H  0.41987489  0.06690287  0.59640599     0.33900
H738        H  0.42501964  0.06691130  0.55803586     0.38400
H739        H  0.55845867  0.11176019  0.57620000     0.33800
H740        H  0.53958211  0.14122080  0.58767895     0.30500
H741        H  0.44621288  0.18188501  0.62357422     0.33800
H742        H  0.46930699  0.16867855  0.59683441     0.30500
H743        H  0.55695859  0.14927414  0.70971206     0.38400
H744        H  0.55389346  0.11364635  0.70139671     0.33900
C745        C  0.49862975  0.16059124  0.80605410    -0.19900
C746        C  0.47839464  0.16702221  0.82986541     0.36300
C747        C  0.47661103  0.14847272  0.85584403    -0.25900
C748        C  0.49419861  0.12350502  0.85801850     0.02800
C749        C  0.51429884  0.11700676  0.83431958     0.27600
C750        C  0.51650409  0.13575959  0.80871671    -0.25000
N751        N  0.45915168  0.19171158  0.82712628    -0.82400
H752        H  0.46098702  0.15303384  0.87409714     0.13400
C753        C  0.49057410  0.10339931  0.88449245     0.02700
N754        N  0.53169271  0.09088735  0.83593188    -0.80900
H755        H  0.53201126  0.13077758  0.79047041     0.18200
C756        C  0.47024495  0.08066678  0.88211558    -0.25800
C757        C  0.46738502  0.05985842  0.90589966     0.36200
C758        C  0.48577774  0.06163620  0.93220960    -0.19800
C759        C  0.50592087  0.08465797  0.93461596    -0.25100
C760        C  0.50826376  0.10581024  0.91111206     0.27600
H761        H  0.45681601  0.07903013  0.86144405     0.13400
N762        N  0.44687650  0.03626943  0.90272849    -0.82300
H763        H  0.51973503  0.08620659  0.95500420     0.18200
N764        N  0.52826693  0.12983802  0.91422979    -0.80900
H765        H  0.43667968  0.03703655  0.88100775     0.33900
H766        H  0.43033183  0.03951684  0.91907402     0.38400
H767        H  0.53927902  0.12869076  0.93548419     0.33800
H768        H  0.54416283  0.12785193  0.89697481     0.30500
H769        H  0.54483512  0.08891785  0.81619734     0.33800
H770        H  0.54589255  0.09286945  0.85481776     0.30500
H771        H  0.44543500  0.18802281  0.80809901     0.38400
H772        H  0.44564014  0.19331057  0.84661024     0.33900
C773        C  0.48031251  0.94085318  0.56801422    -0.19900
C774        C  0.50089853  0.91784139  0.56846420     0.36300
C775        C  0.50008252  0.89719855  0.59261144    -0.25900
C776        C  0.47893921  0.89884527  0.61602463     0.02800
C777        C  0.45774391  0.92118835  0.61511997     0.27600
C778        C  0.45851107  0.94188861  0.59094749    -0.25000
N779        N  0.52246246  0.91542860  0.54434193    -0.82400
H780        H  0.51633253  0.87999973  0.59354860     0.13400
C781        C  0.48148774  0.87907898  0.64311750     0.02700
N782        N  0.43633712  0.92344966  0.63941063    -0.80900
H783        H  0.44258936  0.95940778  0.59053177     0.18200
C784        C  0.50062175  0.88694095  0.66702119    -0.25800
C785        C  0.50446703  0.86899763  0.69304454     0.36200
C786        C  0.48812156  0.84294682  0.69599714    -0.19800
C787        C  0.46954811  0.83463443  0.67145452    -0.25100
C788        C  0.46634242  0.85232775  0.64482353     0.27600
H789        H  0.51299463  0.90704999  0.66525880     0.13400
N790        N  0.52566355  0.87697363  0.71602981    -0.82300
H791        H  0.45719170  0.81454390  0.67323834     0.18200
N792        N  0.44836466  0.84298263  0.61931580    -0.80900
H793        H  0.52012871  0.89757819  0.72462663     0.33900
H794        H  0.54603077  0.87863948  0.70517703     0.38400
H795        H  0.43930995  0.82248367  0.62393483     0.33800
H796        H  0.43088280  0.85753496  0.61732655     0.30500
H797        H  0.42280184  0.94151940  0.63571667     0.33800
H798        H  0.42289023  0.90506126  0.63818257     0.30500
H799        H  0.51138879  0.91144721  0.52351490     0.38400
H800        H  0.53600686  0.89740092  0.54820814     0.33900
C801        C  0.49308100  0.83827992  0.81167102    -0.19900
C802        C  0.51313077  0.86122629  0.81673419     0.36300
C803        C  0.51136454  0.87767917  0.84413565    -0.25900
C804        C  0.49008936  0.87158745  0.86660648     0.02800
C805        C  0.47100495  0.84777062  0.86235536     0.27600
C806        C  0.47271661  0.83125416  0.83487493    -0.25000
N807        N  0.53493139  0.86794120  0.79379725    -0.82400
H808        H  0.52607618  0.89592564  0.84761553     0.13400
C809        C  0.48683723  0.89185763  0.89317256     0.02700
N810        N  0.44971625  0.84084668  0.88573250    -0.80900
H811        H  0.45750700  0.81348742  0.83105788     0.18200
C812        C  0.46157889  0.90909799  0.89518688    -0.25800
C813        C  0.45895500  0.93108895  0.91777769     0.36200
C814        C  0.48240467  0.93613685  0.93853657    -0.19800
C815        C  0.50728491  0.91812372  0.93701584    -0.25100
C816        C  0.50963322  0.89591727  0.91470667     0.27600
H817        H  0.44418195  0.90589816  0.87843445     0.13400
N818        N  0.43318956  0.94904902  0.91864854    -0.82300
H819        H  0.52510902  0.92149254  0.95321274     0.18200
N820        N  0.53518697  0.87767602  0.91353324    -0.80900
H821        H  0.41913786  0.94382628  0.90031300     0.33900
H822        H  0.42186344  0.94385132  0.93896815     0.38400
H823        H  0.55001442  0.88354691  0.93092729     0.33800
H824        H  0.52856118  0.85631980  0.91841571     0.30500
H825        H  0.43726257  0.82279002  0.87901331     0.33800
H826        H  0.46108323  0.83469669  0.90577168     0.30500
H827        H  0.54884903  0.84990909  0.79209451     0.38400
H828        H  0.54782182  0.88553455  0.80096494     0.33900
loop_ 
_geom_bond_atom_site_label_1 
_geom_bond_atom_site_label_2 
_geom_bond_distance 
_geom_bond_site_symmetry_2 
_ccdc_geom_bond_type 
O1            V9   1.903   1_565  S
O1           C11   1.265       .  A
O2          V423   1.903       .  S
O2           C12   1.265       .  A
O3            V9   1.898       .  S
O3           C13   1.263       .  A
O4          V423   1.902   1_565  S
O4           C14   1.264       .  A
O5           V10   1.901   1_565  S
O5           C14   1.265       .  A
O6          V424   1.901       .  S
O6           C13   1.265       .  A
O7           V10   1.893       .  S
O7           C12   1.264       .  A
O8          V424   1.894   1_565  S
O8           C11   1.264       .  A
V9          O416   1.903       .  S
V9          O418   1.902   1_545  S
V9          V424   2.085       .  T
V10         O420   1.901   1_554  S
V10         O422   1.894   1_544  S
V10         V423   2.085       .  T
C11         C400   1.484       .  S
C12         C316   1.484       .  S
C13         C344   1.477       .  S
C14         C359   1.482       .  S
C15         C275   1.475       .  S
C15          C16   1.403       .  A
C15          C20   1.403       .  A
C16          C17   1.404       .  A
C16          H21   1.084       .  S
C17         C331   1.484       .  S
C17          C18   1.402       .  A
C18          C19   1.401       .  A
C18          H22   1.084       .  S
C19         C303   1.481       .  S
C19          C20   1.402       .  A
C20          H23   1.084       .  S
C24         C260   1.492       .  S
C24          C25   1.408       .  A
C24          C29   1.411       .  A
C25          C26   1.401       .  A
C25          H30   1.084       .  S
C26         C387   1.484       .  S
C26          C27   1.400       .  A
C27          C28   1.405       .  A
C27          H31   1.083       .  S
C28         C372   1.494       .  S
C28          C29   1.410       .  A
C29          H32   1.083       .  S
O33          V41   1.898   1_655  S
O33          C43   1.263       .  A
O34         V455   1.896   1_554  S
O34          C44   1.264       .  A
O35          V41   1.903       .  S
O35          C45   1.266       .  A
O36         V455   1.897   1_654  S
O36          C46   1.265       .  A
O37          V42   1.902   1_654  S
O37          C46   1.264       .  A
O38         V456   1.899       .  S
O38          C45   1.265       .  A
O39          V42   1.903   1_554  S
O39          C44   1.266       .  A
O40         V456   1.899   1_655  S
O40          C43   1.264       .  A
V41         O448   1.896       .  S
V41         O450   1.897   1_455  S
V41         V456   2.086       .  T
V42         O452   1.899       .  S
V42         O454   1.899   1_455  S
V42         V455   2.086       .  T
C43         C219   1.473       .  S
C44         C135   1.483       .  S
C45         C176   1.485       .  S
C46         C191   1.482       .  S
C47         C120   1.485       .  S
C47          C48   1.406       .  A
C47          C52   1.406       .  A
C48          C49   1.405       .  A
C48          H53   1.084       .  S
C49         C163   1.487       .  S
C49          C50   1.404       .  A
C50          C51   1.403       .  A
C50          H54   1.084       .  S
C51         C148   1.484       .  S
C51          C52   1.404       .  A
C52          H55   1.084       .  S
C56          C79   1.471       .  S
C56          C57   1.402       .  A
C56          C61   1.401       .  A
C57          C58   1.404       .  A
C57          H62   1.084       .  S
C58         C204   1.486       .  S
C58          C59   1.404       .  A
C59          C60   1.403       .  A
C59          H63   1.083       .  S
C60         C232   1.483       .  S
C60          C61   1.402       .  A
C61          H64   1.084       .  S
O65          V73   1.897       .  S
O65          C75   1.265       .  A
O66          V73   1.895       .  S
O66          C76   1.264       .  A
O67          V73   1.895       .  S
O67          C77   1.264       .  A
O68          V73   1.898       .  S
O68          C78   1.264       .  A
O69          V74   1.908       .  S
O69          C78   1.268       .  A
O70          V74   1.910       .  S
O70          C77   1.267       .  A
O71          V74   1.901       .  S
O71          C76   1.265       .  A
O72          V74   1.902       .  S
O72          C75   1.265       .  A
V73          V74   2.084       .  T
C75         C107   1.489       .  S
C76          C92   1.480       .  S
C77         C288   1.491       .  S
C78         C247   1.494       .  S
C79          C80   1.408       .  A
C79          C84   1.401       .  A
C80          C81   1.404       .  A
C80          N85   1.438       .  S
C81          C82   1.401       .  A
C81          H86   1.084       .  S
C82          C87   1.476       .  S
C82          C83   1.409       .  A
C83          C84   1.405       .  A
C83          N88   1.437       .  S
C84          H89   1.084       .  S
N85         H105   1.045       .  S
N85         H106   1.046       .  S
C87          C90   1.401       .  A
C87          C94   1.406       .  A
N88         H103   1.046       .  S
N88         H104   1.046       .  S
C90          C91   1.406       .  A
C90          H95   1.084       .  S
C91          C92   1.415       .  A
C91          N96   1.438       .  S
C92          C93   1.405       .  A
C93          C94   1.403       .  A
C93          H97   1.084       .  S
C94          N98   1.438       .  S
N96          H99   1.046       .  S
N96         H100   1.046       .  S
N98         H101   1.046       .  S
N98         H102   1.046       .  S
C107        C108   1.417       .  A
C107        C112   1.408       .  A
C108        C109   1.407       .  A
C108        N113   1.438       .  S
C109        C110   1.402       .  A
C109        H114   1.084       .  S
C110        C115   1.485       .  S
C110        C111   1.408       .  A
C111        C112   1.405       .  A
C111        N116   1.438       .  S
C112        H117   1.083       .  S
N113        H133   1.045       .  S
N113        H134   1.046       .  S
C115        C118   1.403       .  A
C115        C122   1.410       .  A
N116        H131   1.046       .  S
N116        H132   1.046       .  S
C118        C119   1.406       .  A
C118        H123   1.084       .  S
C119        C120   1.413       .  A
C119        N124   1.438       .  S
C120        C121   1.404       .  A
C121        C122   1.406       .  A
C121        H125   1.084       .  S
C122        N126   1.438       .  S
N124        H127   1.046       .  S
N124        H128   1.045       .  S
N126        H129   1.046       .  S
N126        H130   1.046       .  S
C135        C136   1.415       .  A
C135        C140   1.406       .  A
C136        C137   1.404       .  A
C136        N141   1.438       .  S
C137        C138   1.400       .  A
C137        H142   1.084       .  S
C138        C143   1.481       .  S
C138        C139   1.408       .  A
C139        C140   1.408       .  A
C139        N144   1.437       .  S
C140        H145   1.084       .  S
N141        H161   1.046       .  S
N141        H162   1.046       .  S
C143        C146   1.402       .  A
C143        C150   1.409       .  A
N144        H159   1.046       .  S
N144        H160   1.046       .  S
C146        C147   1.406       .  A
C146        H151   1.084       .  S
C147        C148   1.413       .  A
C147        N152   1.438       .  S
C148        C149   1.404       .  A
C149        C150   1.406       .  A
C149        H153   1.084       .  S
C150        N154   1.437       .  S
N152        H155   1.046       .  S
N152        H156   1.046       .  S
N154        H157   1.046       .  S
N154        H158   1.046       .  S
C163        C164   1.414       .  A
C163        C168   1.405       .  A
C164        C165   1.406       .  A
C164        N169   1.438       .  S
C165        C166   1.401       .  A
C165        H170   1.084       .  S
C166        C171   1.482       .  S
C166        C167   1.409       .  A
C167        C168   1.406       .  A
C167        N172   1.437       .  S
C168        H173   1.084       .  S
N169        H189   1.046       .  S
N169        H190   1.046       .  S
C171        C174   1.401       .  A
C171        C178   1.408       .  A
N172        H187   1.046       .  S
N172        H188   1.046       .  S
C174        C175   1.405       .  A
C174        H179   1.084       .  S
C175        C176   1.415       .  A
C175        N180   1.438       .  S
C176        C177   1.407       .  A
C177        C178   1.407       .  A
C177        H181   1.083       .  S
C178        N182   1.437       .  S
N180        H183   1.046       .  S
N180        H184   1.046       .  S
N182        H185   1.046       .  S
N182        H186   1.046       .  S
C191        C192   1.416       .  A
C191        C196   1.405       .  A
C192        C193   1.408       .  A
C192        N197   1.438       .  S
C193        C194   1.401       .  A
C193        H198   1.084       .  S
C194        C199   1.476       .  S
C194        C195   1.408       .  A
C195        C196   1.403       .  A
C195        N200   1.439       .  S
C196        H201   1.084       .  S
N197        H217   1.045       .  S
N197        H218   1.046       .  S
C199        C202   1.399       .  A
C199        C206   1.409       .  A
N200        H215   1.045       .  S
N200        H216   1.044       .  S
C202        C203   1.403       .  A
C202        H207   1.084       .  S
C203        C204   1.415       .  A
C203        N208   1.438       .  S
C204        C205   1.406       .  A
C205        C206   1.407       .  A
C205        H209   1.083       .  S
C206        N210   1.438       .  S
N208        H211   1.046       .  S
N208        H212   1.045       .  S
N210        H213   1.046       .  S
N210        H214   1.044       .  S
C219        C220   1.413       .  A
C219        C224   1.402       .  A
C220        C221   1.406       .  A
C220        N225   1.438       .  S
C221        C222   1.400       .  A
C221        H226   1.084       .  S
C222        C227   1.475       .  S
C222        C223   1.408       .  A
C223        C224   1.403       .  A
C223        N228   1.438       .  S
C224        H229   1.084       .  S
N225        H245   1.045       .  S
N225        H246   1.046       .  S
C227        C230   1.399       .  A
C227        C234   1.408       .  A
N228        H243   1.046       .  S
N228        H244   1.045       .  S
C230        C231   1.403       .  A
C230        H235   1.084       .  S
C231        C232   1.413       .  A
C231        N236   1.438       .  S
C232        C233   1.405       .  A
C233        C234   1.405       .  A
C233        H237   1.084       .  S
C234        N238   1.438       .  S
N236        H239   1.046       .  S
N236        H240   1.045       .  S
N238        H241   1.046       .  S
N238        H242   1.045       .  S
C247        C248   1.419       .  A
C247        C252   1.407       .  A
C248        C249   1.408       .  A
C248        N253   1.438       .  S
C249        C250   1.402       .  A
C249        H254   1.084       .  S
C250        C255   1.492       .  S
C250        C251   1.411       .  A
C251        C252   1.408       .  A
C251        N256   1.438       .  S
C252        H257   1.083       .  S
N253        H273   1.046       .  S
N253        H274   1.046       .  S
C255        C258   1.403       .  A
C255        C262   1.413       .  A
N256        H271   1.045       .  S
N256        H272   1.046       .  S
C258        C259   1.406       .  A
C258        H263   1.084       .  S
C259        C260   1.414       .  A
C259        N264   1.438       .  S
C260        C261   1.406       .  A
C261        C262   1.410       .  A
C261        H265   1.083       .  S
C262        N266   1.438       .  S
N264        H267   1.046       .  S
N264        H268   1.046       .  S
N266        H269   1.046       .  S
N266        H270   1.046       .  S
C275        C276   1.409       .  A
C275        C280   1.402       .  A
C276        C277   1.405       .  A
C276        N281   1.438       .  S
C277        C278   1.403       .  A
C277        H282   1.084       .  S
C278        C283   1.484       .  S
C278        C279   1.411       .  A
C279        C280   1.407       .  A
C279        N284   1.437       .  S
C280        H285   1.084       .  S
N281        H301   1.045       .  S
N281        H302   1.046       .  S
C283        C286   1.403       .  A
C283        C290   1.407       .  A
N284        H299   1.046       .  S
N284        H300   1.046       .  S
C286        C287   1.409       .  A
C286        H291   1.084       .  S
C287        C288   1.417       .  A
C287        N292   1.437       .  S
C288        C289   1.408       .  A
C289        C290   1.404       .  A
C289        H293   1.083       .  S
C290        N294   1.438       .  S
N292        H295   1.046       .  S
N292        H296   1.046       .  S
N294        H297   1.046       .  S
N294        H298   1.046       .  S
C303        C304   1.413       .  A
C303        C308   1.404       .  A
C304        C305   1.401       .  A
C304        N309   1.438       .  S
C305        C306   1.402       .  A
C305        H310   1.084       .  S
C306        C311   1.481       .  S
C306        C307   1.410       .  A
C307        C308   1.406       .  A
C307        N312   1.437       .  S
C308        H313   1.084       .  S
N309        H329   1.045       .  S
N309        H330   1.046       .  S
C311        C314   1.402       .  A
C311        C318   1.408       .  A
N312        H327   1.046       .  S
N312        H328   1.046       .  S
C314        C315   1.406       .  A
C314        H319   1.084       .  S
C315        C316   1.415       .  A
C315        N320   1.438       .  S
C316        C317   1.407       .  A
C317        C318   1.403       .  A
C317        H321   1.084       .  S
C318        N322   1.438       .  S
N320        H323   1.045       .  S
N320        H324   1.046       .  S
N322        H325   1.045       .  S
N322        H326   1.046       .  S
C331        C332   1.414       .  A
C331        C336   1.405       .  A
C332        C333   1.407       .  A
C332        N337   1.438       .  S
C333        C334   1.401       .  A
C333        H338   1.084       .  S
C334        C339   1.475       .  S
C334        C335   1.407       .  A
C335        C336   1.401       .  A
C335        N340   1.438       .  S
C336        H341   1.084       .  S
N337        H357   1.046       .  S
N337        H358   1.046       .  S
C339        C342   1.400       .  A
C339        C346   1.407       .  A
N340        H355   1.046       .  S
N340        H356   1.045       .  S
C342        C343   1.405       .  A
C342        H347   1.084       .  S
C343        C344   1.413       .  A
C343        N348   1.438       .  S
C344        C345   1.405       .  A
C345        C346   1.405       .  A
C345        H349   1.084       .  S
C346        N350   1.438       .  S
N348        H351   1.046       .  S
N348        H352   1.045       .  S
N350        H353   1.046       .  S
N350        H354   1.044       .  S
C359        C360   1.413       .  A
C359        C364   1.405       .  A
C360        C361   1.406       .  A
C360        N365   1.438       .  S
C361        C362   1.400       .  A
C361        H366   1.084       .  S
C362        C367   1.481       .  S
C362        C363   1.410       .  A
C363        C364   1.408       .  A
C363        N368   1.438       .  S
C364        H369   1.084       .  S
N365        H385   1.046       .  S
N365        H386   1.045       .  S
C367        C370   1.398       .  A
C367        C374   1.410       .  A
N368        H383   1.046       .  S
N368        H384   1.045       .  S
C370        C371   1.401       .  A
C370        H375   1.084       .  S
C371        C372   1.414       .  A
C371        N376   1.433       .  S
C372        C373   1.408       .  A
C373        C374   1.412       .  A
C373        H377   1.083       .  S
C374        N378   1.437       .  S
N376        H379   1.046       .  S
N376        H380   1.046       .  S
N378        H381   1.046       .  S
N378        H382   1.044       .  S
C387        C388   1.412       .  A
C387        C392   1.404       .  A
C388        C389   1.404       .  A
C388        N393   1.438       .  S
C389        C390   1.401       .  A
C389        H394   1.084       .  S
C390        C395   1.482       .  S
C390        C391   1.410       .  A
C391        C392   1.408       .  A
C391        N396   1.437       .  S
C392        H397   1.084       .  S
N393        H413   1.045       .  S
N393        H414   1.046       .  S
C395        C398   1.402       .  A
C395        C402   1.407       .  A
N396        H411   1.046       .  S
N396        H412   1.046       .  S
C398        C399   1.407       .  A
C398        H403   1.084       .  S
C399        C400   1.415       .  A
C399        N404   1.438       .  S
C400        C401   1.407       .  A
C401        C402   1.404       .  A
C401        H405   1.084       .  S
C402        N406   1.438       .  S
N404        H407   1.046       .  S
N404        H408   1.045       .  S
N406        H409   1.046       .  S
N406        H410   1.046       .  S
O415        V423   1.903   1_566  S
O415        C425   1.265       .  A
O416        C426   1.265       .  A
O417        V423   1.898   1_556  S
O417        C427   1.263       .  A
O418        C428   1.264       .  A
O419        V424   1.901   1_565  S
O419        C428   1.265       .  A
O420        C427   1.265       .  A
O421        V424   1.893       .  S
O421        C426   1.264       .  A
O422        C425   1.264       .  A
C425        C814   1.484       .  S
C426        C730   1.484       .  S
C427        C758   1.477       .  S
C428        C773   1.482       .  S
C429        C689   1.475       .  S
C429        C430   1.403       .  A
C429        C434   1.403       .  A
C430        C431   1.404       .  A
C430        H435   1.084       .  S
C431        C745   1.484       .  S
C431        C432   1.402       .  A
C432        C433   1.401       .  A
C432        H436   1.084       .  S
C433        C717   1.481       .  S
C433        C434   1.402       .  A
C434        H437   1.084       .  S
C438        C674   1.492       .  S
C438        C439   1.408       .  A
C438        C443   1.411       .  A
C439        C440   1.401       .  A
C439        H444   1.084       .  S
C440        C801   1.484       .  S
C440        C441   1.400       .  A
C441        C442   1.405       .  A
C441        H445   1.083       .  S
C442        C786   1.494       .  S
C442        C443   1.410       .  A
C443        H446   1.083       .  S
O447        V455   1.898   1_655  S
O447        C457   1.263       .  A
O448        C458   1.264       .  A
O449        V455   1.903       .  S
O449        C459   1.266       .  A
O450        C460   1.265       .  A
O451        V456   1.902   1_655  S
O451        C460   1.264       .  A
O452        C459   1.265       .  A
O453        V456   1.903       .  S
O453        C458   1.266       .  A
O454        C457   1.264       .  A
C457        C633   1.473       .  S
C458        C549   1.483       .  S
C459        C590   1.485       .  S
C460        C605   1.482       .  S
C461        C534   1.485       .  S
C461        C462   1.406       .  A
C461        C466   1.406       .  A
C462        C463   1.405       .  A
C462        H467   1.084       .  S
C463        C577   1.487       .  S
C463        C464   1.404       .  A
C464        C465   1.403       .  A
C464        H468   1.084       .  S
C465        C562   1.484       .  S
C465        C466   1.404       .  A
C466        H469   1.084       .  S
C470        C493   1.471       .  S
C470        C471   1.402       .  A
C470        C475   1.401       .  A
C471        C472   1.404       .  A
C471        H476   1.084       .  S
C472        C618   1.486       .  S
C472        C473   1.404       .  A
C473        C474   1.403       .  A
C473        H477   1.083       .  S
C474        C646   1.483       .  S
C474        C475   1.402       .  A
C475        H478   1.084       .  S
O479        V487   1.897       .  S
O479        C489   1.265       .  A
O480        V487   1.895       .  S
O480        C490   1.264       .  A
O481        V487   1.895       .  S
O481        C491   1.264       .  A
O482        V487   1.898       .  S
O482        C492   1.264       .  A
O483        V488   1.908       .  S
O483        C492   1.268       .  A
O484        V488   1.910       .  S
O484        C491   1.267       .  A
O485        V488   1.901       .  S
O485        C490   1.265       .  A
O486        V488   1.902       .  S
O486        C489   1.265       .  A
V487        V488   2.084       .  T
C489        C521   1.489       .  S
C490        C506   1.480       .  S
C491        C702   1.491       .  S
C492        C661   1.494       .  S
C493        C494   1.408       .  A
C493        C498   1.401       .  A
C494        C495   1.404       .  A
C494        N499   1.438       .  S
C495        C496   1.401       .  A
C495        H500   1.084       .  S
C496        C501   1.476       .  S
C496        C497   1.409       .  A
C497        C498   1.405       .  A
C497        N502   1.437       .  S
C498        H503   1.084       .  S
N499        H519   1.045       .  S
N499        H520   1.046       .  S
C501        C504   1.401       .  A
C501        C508   1.406       .  A
N502        H517   1.046       .  S
N502        H518   1.046       .  S
C504        C505   1.406       .  A
C504        H509   1.084       .  S
C505        C506   1.415       .  A
C505        N510   1.438       .  S
C506        C507   1.405       .  A
C507        C508   1.403       .  A
C507        H511   1.084       .  S
C508        N512   1.438       .  S
N510        H513   1.046       .  S
N510        H514   1.046       .  S
N512        H515   1.046       .  S
N512        H516   1.046       .  S
C521        C522   1.417       .  A
C521        C526   1.408       .  A
C522        C523   1.407       .  A
C522        N527   1.438       .  S
C523        C524   1.402       .  A
C523        H528   1.084       .  S
C524        C529   1.485       .  S
C524        C525   1.408       .  A
C525        C526   1.405       .  A
C525        N530   1.438       .  S
C526        H531   1.083       .  S
N527        H547   1.045       .  S
N527        H548   1.046       .  S
C529        C532   1.403       .  A
C529        C536   1.410       .  A
N530        H545   1.046       .  S
N530        H546   1.046       .  S
C532        C533   1.406       .  A
C532        H537   1.084       .  S
C533        C534   1.413       .  A
C533        N538   1.438       .  S
C534        C535   1.404       .  A
C535        C536   1.406       .  A
C535        H539   1.084       .  S
C536        N540   1.438       .  S
N538        H541   1.046       .  S
N538        H542   1.045       .  S
N540        H543   1.046       .  S
N540        H544   1.046       .  S
C549        C550   1.415       .  A
C549        C554   1.406       .  A
C550        C551   1.404       .  A
C550        N555   1.438       .  S
C551        C552   1.400       .  A
C551        H556   1.084       .  S
C552        C557   1.481       .  S
C552        C553   1.408       .  A
C553        C554   1.408       .  A
C553        N558   1.437       .  S
C554        H559   1.084       .  S
N555        H575   1.046       .  S
N555        H576   1.046       .  S
C557        C560   1.402       .  A
C557        C564   1.409       .  A
N558        H573   1.046       .  S
N558        H574   1.046       .  S
C560        C561   1.406       .  A
C560        H565   1.084       .  S
C561        C562   1.413       .  A
C561        N566   1.438       .  S
C562        C563   1.404       .  A
C563        C564   1.406       .  A
C563        H567   1.084       .  S
C564        N568   1.437       .  S
N566        H569   1.046       .  S
N566        H570   1.046       .  S
N568        H571   1.046       .  S
N568        H572   1.046       .  S
C577        C578   1.414       .  A
C577        C582   1.405       .  A
C578        C579   1.406       .  A
C578        N583   1.438       .  S
C579        C580   1.401       .  A
C579        H584   1.084       .  S
C580        C585   1.482       .  S
C580        C581   1.409       .  A
C581        C582   1.406       .  A
C581        N586   1.437       .  S
C582        H587   1.084       .  S
N583        H603   1.046       .  S
N583        H604   1.046       .  S
C585        C588   1.401       .  A
C585        C592   1.408       .  A
N586        H601   1.046       .  S
N586        H602   1.046       .  S
C588        C589   1.405       .  A
C588        H593   1.084       .  S
C589        C590   1.415       .  A
C589        N594   1.438       .  S
C590        C591   1.407       .  A
C591        C592   1.407       .  A
C591        H595   1.083       .  S
C592        N596   1.437       .  S
N594        H597   1.046       .  S
N594        H598   1.046       .  S
N596        H599   1.046       .  S
N596        H600   1.046       .  S
C605        C606   1.416       .  A
C605        C610   1.405       .  A
C606        C607   1.408       .  A
C606        N611   1.438       .  S
C607        C608   1.401       .  A
C607        H612   1.084       .  S
C608        C613   1.476       .  S
C608        C609   1.408       .  A
C609        C610   1.403       .  A
C609        N614   1.439       .  S
C610        H615   1.084       .  S
N611        H631   1.045       .  S
N611        H632   1.046       .  S
C613        C616   1.399       .  A
C613        C620   1.409       .  A
N614        H629   1.045       .  S
N614        H630   1.044       .  S
C616        C617   1.403       .  A
C616        H621   1.084       .  S
C617        C618   1.415       .  A
C617        N622   1.438       .  S
C618        C619   1.406       .  A
C619        C620   1.407       .  A
C619        H623   1.083       .  S
C620        N624   1.438       .  S
N622        H625   1.046       .  S
N622        H626   1.045       .  S
N624        H627   1.046       .  S
N624        H628   1.044       .  S
C633        C634   1.413       .  A
C633        C638   1.402       .  A
C634        C635   1.406       .  A
C634        N639   1.438       .  S
C635        C636   1.400       .  A
C635        H640   1.084       .  S
C636        C641   1.475       .  S
C636        C637   1.408       .  A
C637        C638   1.403       .  A
C637        N642   1.438       .  S
C638        H643   1.084       .  S
N639        H659   1.045       .  S
N639        H660   1.046       .  S
C641        C644   1.399       .  A
C641        C648   1.408       .  A
N642        H657   1.046       .  S
N642        H658   1.045       .  S
C644        C645   1.403       .  A
C644        H649   1.084       .  S
C645        C646   1.413       .  A
C645        N650   1.438       .  S
C646        C647   1.405       .  A
C647        C648   1.405       .  A
C647        H651   1.084       .  S
C648        N652   1.438       .  S
N650        H653   1.046       .  S
N650        H654   1.045       .  S
N652        H655   1.046       .  S
N652        H656   1.045       .  S
C661        C662   1.419       .  A
C661        C666   1.407       .  A
C662        C663   1.408       .  A
C662        N667   1.438       .  S
C663        C664   1.402       .  A
C663        H668   1.084       .  S
C664        C669   1.492       .  S
C664        C665   1.411       .  A
C665        C666   1.408       .  A
C665        N670   1.438       .  S
C666        H671   1.083       .  S
N667        H687   1.046       .  S
N667        H688   1.046       .  S
C669        C672   1.403       .  A
C669        C676   1.413       .  A
N670        H685   1.045       .  S
N670        H686   1.046       .  S
C672        C673   1.406       .  A
C672        H677   1.084       .  S
C673        C674   1.414       .  A
C673        N678   1.438       .  S
C674        C675   1.406       .  A
C675        C676   1.410       .  A
C675        H679   1.083       .  S
C676        N680   1.438       .  S
N678        H681   1.046       .  S
N678        H682   1.046       .  S
N680        H683   1.046       .  S
N680        H684   1.046       .  S
C689        C690   1.409       .  A
C689        C694   1.402       .  A
C690        C691   1.405       .  A
C690        N695   1.438       .  S
C691        C692   1.403       .  A
C691        H696   1.084       .  S
C692        C697   1.484       .  S
C692        C693   1.411       .  A
C693        C694   1.407       .  A
C693        N698   1.437       .  S
C694        H699   1.084       .  S
N695        H715   1.045       .  S
N695        H716   1.046       .  S
C697        C700   1.403       .  A
C697        C704   1.407       .  A
N698        H713   1.046       .  S
N698        H714   1.046       .  S
C700        C701   1.409       .  A
C700        H705   1.084       .  S
C701        C702   1.417       .  A
C701        N706   1.437       .  S
C702        C703   1.408       .  A
C703        C704   1.404       .  A
C703        H707   1.083       .  S
C704        N708   1.438       .  S
N706        H709   1.046       .  S
N706        H710   1.046       .  S
N708        H711   1.046       .  S
N708        H712   1.046       .  S
C717        C718   1.413       .  A
C717        C722   1.404       .  A
C718        C719   1.401       .  A
C718        N723   1.438       .  S
C719        C720   1.402       .  A
C719        H724   1.084       .  S
C720        C725   1.481       .  S
C720        C721   1.410       .  A
C721        C722   1.406       .  A
C721        N726   1.437       .  S
C722        H727   1.084       .  S
N723        H743   1.045       .  S
N723        H744   1.046       .  S
C725        C728   1.402       .  A
C725        C732   1.408       .  A
N726        H741   1.046       .  S
N726        H742   1.046       .  S
C728        C729   1.406       .  A
C728        H733   1.084       .  S
C729        C730   1.415       .  A
C729        N734   1.438       .  S
C730        C731   1.407       .  A
C731        C732   1.403       .  A
C731        H735   1.084       .  S
C732        N736   1.438       .  S
N734        H737   1.045       .  S
N734        H738   1.046       .  S
N736        H739   1.045       .  S
N736        H740   1.046       .  S
C745        C746   1.414       .  A
C745        C750   1.405       .  A
C746        C747   1.407       .  A
C746        N751   1.438       .  S
C747        C748   1.401       .  A
C747        H752   1.084       .  S
C748        C753   1.475       .  S
C748        C749   1.407       .  A
C749        C750   1.401       .  A
C749        N754   1.438       .  S
C750        H755   1.084       .  S
N751        H771   1.046       .  S
N751        H772   1.046       .  S
C753        C756   1.400       .  A
C753        C760   1.407       .  A
N754        H769   1.046       .  S
N754        H770   1.045       .  S
C756        C757   1.405       .  A
C756        H761   1.084       .  S
C757        C758   1.413       .  A
C757        N762   1.438       .  S
C758        C759   1.405       .  A
C759        C760   1.405       .  A
C759        H763   1.084       .  S
C760        N764   1.438       .  S
N762        H765   1.046       .  S
N762        H766   1.045       .  S
N764        H767   1.046       .  S
N764        H768   1.044       .  S
C773        C774   1.413       .  A
C773        C778   1.405       .  A
C774        C775   1.406       .  A
C774        N779   1.438       .  S
C775        C776   1.400       .  A
C775        H780   1.084       .  S
C776        C781   1.481       .  S
C776        C777   1.410       .  A
C777        C778   1.408       .  A
C777        N782   1.438       .  S
C778        H783   1.084       .  S
N779        H799   1.046       .  S
N779        H800   1.045       .  S
C781        C784   1.398       .  A
C781        C788   1.410       .  A
N782        H797   1.046       .  S
N782        H798   1.045       .  S
C784        C785   1.401       .  A
C784        H789   1.084       .  S
C785        C786   1.414       .  A
C785        N790   1.433       .  S
C786        C787   1.408       .  A
C787        C788   1.412       .  A
C787        H791   1.083       .  S
C788        N792   1.437       .  S
N790        H793   1.046       .  S
N790        H794   1.046       .  S
N792        H795   1.046       .  S
N792        H796   1.044       .  S
C801        C802   1.412       .  A
C801        C806   1.404       .  A
C802        C803   1.404       .  A
C802        N807   1.438       .  S
C803        C804   1.401       .  A
C803        H808   1.084       .  S
C804        C809   1.482       .  S
C804        C805   1.410       .  A
C805        C806   1.408       .  A
C805        N810   1.437       .  S
C806        H811   1.084       .  S
N807        H827   1.045       .  S
N807        H828   1.046       .  S
C809        C812   1.402       .  A
C809        C816   1.407       .  A
N810        H825   1.046       .  S
N810        H826   1.046       .  S
C812        C813   1.407       .  A
C812        H817   1.084       .  S
C813        C814   1.415       .  A
C813        N818   1.438       .  S
C814        C815   1.407       .  A
C815        C816   1.404       .  A
C815        H819   1.084       .  S
C816        N820   1.438       .  S
N818        H821   1.046       .  S
N818        H822   1.045       .  S
N820        H823   1.046       .  S
N820        H824   1.046       .  S
