geometry optimzed in LAMMPS
_audit_creation_date              2020-11-30 
_audit_creation_method            'lammps2cif' 
_symmetry_space_group_name_H-M    'P1' 
_symmetry_Int_Tables_number       1 
_symmetry_cell_setting            triclinic 
loop_ 
_symmetry_equiv_pos_as_xyz 
  x,y,z 
_cell_length_a                    36.08075605 
_cell_length_b                    24.26469967207306 
_cell_length_c                    34.86504338201725 
_cell_angle_alpha                 89.53186363258399 
_cell_angle_beta                  90.26145045141446 
_cell_angle_gamma                 89.73706538434526 
loop_ 
_atom_site_label 
_atom_site_type_symbol 
_atom_site_fract_x 
_atom_site_fract_y 
_atom_site_fract_z 
_atom_site_charge 
Zr1        Zr  0.60337650  0.30922194  0.32346204     2.17500
O2          O  0.57634961  0.23560372  0.36229128    -0.52100
O3          O  0.57651708  0.24582986  0.27740632    -0.75300
O4          O  0.54345626  0.33346210  0.35129666    -0.82100
O5          O  0.70434491  0.24767722  0.34046889    -0.83800
O6          O  0.52427524  0.41480027  0.32531896    -0.79400
O7          O  0.64384879  0.24565733  0.35681483    -0.91100
O8          O  0.58374691  0.28022353  0.21735232    -0.77000
O9          O  0.57926414  0.36880648  0.27526012    -0.86500
O10         O  0.64481679  0.29857215  0.27090958    -0.86200
O11         O  0.60463372  0.39847899  0.35299733    -0.73000
O12         O  0.66378516  0.33441138  0.34606092    -0.85100
Zr13       Zr  0.67894769  0.48276418  0.27043621     2.26400
Zr14       Zr  0.58069715  0.45817092  0.30368933     2.06300
Zr15       Zr  0.70496142  0.32705981  0.29304439     2.10000
Zr16       Zr  0.62122889  0.36059361  0.22320170     1.78800
O17         O  0.76566824  0.32932378  0.32382379    -0.93900
O18         O  0.56811998  0.38496820  0.18295771    -0.41700
O19         O  0.67918873  0.39003636  0.24707998    -0.78300
O20         O  0.61880302  0.45161709  0.24769604    -0.97000
O21         O  0.64050273  0.48645663  0.32599079    -0.90300
O22         O  0.70658129  0.42029611  0.31726606    -0.93200
C23         C  0.57236126  0.24364313  0.24092931     1.00600
C24         C  0.67717077  0.22769435  0.36041228     1.13500
C25         C  0.51912637  0.37151899  0.34576658     1.04300
O26         O  0.53154906  0.48975291  0.26053012    -0.95300
O27         O  0.59462499  0.05378246  0.28878421    -0.91100
O28         O  0.63704722  0.05095444  0.24218245    -0.84200
C29         C  0.60630906  0.06905138  0.25604334     1.10900
O30         O  0.69922753  0.34506185  0.40001197    -0.97300
Zr31       Zr  0.66681496  0.42406717  0.37206351     1.88900
O32         O  0.69411119  0.05131290  0.32157185    -0.74000
O33         O  0.55479185  0.50890604  0.35738630    -0.53200
O34         O  0.62287222  0.44867645  0.42211315    -0.97900
O35         O  0.69141408  0.44525148  0.43577960    -0.55100
O36         O  0.71173004  0.49756813  0.36656351    -0.74500
C37         C  0.70402755  0.04325966  0.35658375     0.97900
O38         O  0.72188589  0.54968845  0.24340407    -0.63300
O39         O  0.72376094  0.24711056  0.25572940    -0.58100
O40         O  0.72722254  0.45302241  0.22471599    -0.94800
O41         O  0.74297136  0.36380399  0.23939330    -0.93200
O42         O  0.66089339  0.30339348  0.18343161    -0.93600
O43         O  0.63824241  0.40772358  0.16400870    -0.92300
C44         C  0.74648785  0.40873492  0.21926438     1.16700
H45         H  0.64588463  0.26100859  0.26199982     0.32700
H46         H  0.60746420  0.47075290  0.22623295     0.43500
H47         H  0.73204488  0.42987585  0.32256284     0.37000
H48         H  0.58840731  0.39911882  0.37489014     0.33500
H49         H  0.56604286  0.35474895  0.16415777     0.25300
H50         H  0.57534170  0.53231840  0.36660591     0.31200
H51         H  0.61998916  0.41473370  0.43777254     0.37100
H52         H  0.68419568  0.29922032  0.19829345     0.31600
H53         H  0.74993842  0.24046710  0.26313504     0.30500
H54         H  0.76038805  0.33586112  0.35126035     0.32200
H55         H  0.68912584  0.48556638  0.43905364     0.31100
H56         H  0.65776166  0.43398195  0.17179946     0.35100
H57         H  0.70822708  0.58518647  0.24355158     0.27900
H58         H  0.55176952  0.22786247  0.35084609     0.32100
H59         H  0.68233902  0.33067091  0.42001469     0.34900
H60         H  0.71013375  0.21559082  0.26696599     0.27600
H61         H  0.74142809  0.55393737  0.26317628     0.40400
H62         H  0.53632234  0.47065334  0.23605748     0.30500
H63         H  0.54633072  0.38036939  0.19982390     0.38100
H64         H  0.71846397  0.43869713  0.43404703     0.30000
H65         H  0.53692152  0.53509962  0.34551248     0.30000
H66         H  0.57098334  0.25197530  0.38761244     0.30300
C67         C  0.54648758  0.12673234  0.17353998     0.85700
C68         C  0.57833314  0.09424154  0.19289017    -0.54500
C69         C  0.58054012  0.10145342  0.23165874     0.08700
C70         C  0.55055914  0.14058545  0.24758294     0.19600
C71         C  0.51150608  0.10970431  0.19481195    -0.55200
C72         C  0.51304245  0.11819041  0.23335729     0.08800
C73         C  0.55359477  0.18658018  0.18565762    -0.54700
C74         C  0.55629894  0.19366746  0.22438503     0.09300
H75         H  0.59707356  0.06714415  0.17762491     0.13900
H76         H  0.55199642  0.14599629  0.27916895    -0.00400
H77         H  0.48624751  0.09766183  0.18004333     0.14200
H78         H  0.55917195  0.21968044  0.16540605     0.14000
C79         C  0.65111830  0.11721672  0.43487934     0.85700
C80         C  0.64991411  0.17081674  0.41197413    -0.54500
C81         C  0.68103094  0.18275439  0.39073116     0.08700
C82         C  0.71253074  0.13895967  0.39761671     0.19600
C83         C  0.66140801  0.07399597  0.40552257    -0.55200
C84         C  0.69330908  0.08401568  0.38596278     0.08800
C85         C  0.68460293  0.12264113  0.46085054    -0.54700
C86         C  0.71687829  0.13396909  0.44276719     0.09300
H87         H  0.62495998  0.19548247  0.41055134     0.13900
H88         H  0.73859318  0.14753743  0.38192687    -0.00400
H89         H  0.64410909  0.03869157  0.39971549     0.14200
H90         H  0.68285615  0.11793105  0.49186554     0.14000
Zr91       Zr  0.89236982  0.24655278  0.07052515     2.17500
O92         O  0.91633422  0.32189881  0.10930286    -0.52100
O93         O  0.91728857  0.31180051  0.02437309    -0.75300
O94         O  0.95286987  0.22335157  0.09925335    -0.82100
O95         O  0.78704751  0.29741916  0.08941282    -0.83800
O96         O  0.97358880  0.14451584  0.07202980    -0.79400
O97         O  0.84799377  0.30332988  0.10345826    -0.91100
O98         O  0.91314752  0.27596159  0.96474266    -0.77000
O99         O  0.91749750  0.18850432  0.02310104    -0.86500
O100        O  0.85022871  0.25538408  0.01779455    -0.86200
O101        O  0.89249339  0.15734558  0.10115417    -0.73000
O102        O  0.83267139  0.21749145  0.09150780    -0.85100
Zr103      Zr  0.81890541  0.07089006  0.02049295     2.26400
Zr104      Zr  0.91731620  0.09898431  0.05249142     2.06300
Zr105      Zr  0.79040727  0.22400912  0.03932000     2.10000
Zr106      Zr  0.87520583  0.19515193  0.97079989     1.78800
O107        O  0.72866248  0.21433764  0.06645545    -0.93900
O108        O  0.92778745  0.16645989  0.43247669    -0.41700
O109        O  0.81756758  0.16261720  0.99429037    -0.78300
O110        O  0.87818107  0.10397930  0.99665347    -0.97000
O111        O  0.85834274  0.06896406  0.07554678    -0.90300
O112        O  0.79070674  0.13186851  0.06609115    -0.93200
C113        C  0.92274677  0.31367424  0.98812047     1.00600
C114        C  0.81415608  0.31761417  0.10912144     1.13500
C115        C  0.97803484  0.18665005  0.09329410     1.04300
O116        O  0.96557690  0.06864849  0.00868261    -0.95300
O117        O  0.90689343  0.00317880  0.03796625    -0.91100
O118        O  0.86257198  0.00503314  0.99241608    -0.84200
C119        C  0.89386523  0.98761158  0.00584366     1.10900
O120        O  0.84248181  0.18103821  0.17931917    -0.97300
Zr121      Zr  0.83096681  0.12992232  0.12064108     1.88900
O122        O  0.80998562  0.00127651  0.07259858    -0.74000
O123        O  0.94483760  0.05147491  0.10756792    -0.53200
O124        O  0.85920981  0.08071238  0.17409429    -0.97900
O125        O  0.77499991  0.16547010  0.15086068    -0.55100
O126        O  0.79256634  0.04880770  0.12451175    -0.74500
C127        C  0.80017487  0.00351412  0.10809080     0.97900
O128        O  0.77692660  0.00197699  0.49534512    -0.63300
O129        O  0.77292767  0.30569359  0.00217848    -0.58100
O130        O  0.76915168  0.09897129  0.97469596    -0.94800
O131        O  0.75268239  0.18846562  0.98593052    -0.93200
O132        O  0.83992984  0.26053975  0.43253808    -0.93600
O133        O  0.85602539  0.15813479  0.40988823    -0.92300
C134        C  0.74952734  0.14272320  0.96746736     1.16700
H135        H  0.84848289  0.29292245  0.00851623     0.32700
H136        H  0.88928618  0.08445343  0.97559959     0.43500
H137        H  0.76596803  0.11965767  0.07217840     0.37000
H138        H  0.90814944  0.15640497  0.12368961     0.33500
H139        H  0.93212784  0.19769433  0.41461675     0.25300
H140        H  0.92443175  0.02918412  0.11841060     0.31200
H141        H  0.83785118  0.07094868  0.19052766     0.37100
H142        H  0.81450009  0.25897513  0.44303010     0.31600
H143        H  0.74563154  0.30806720  0.00450841     0.30500
H144        H  0.71485094  0.24718490  0.05714890     0.32200
H145        H  0.75402829  0.14893629  0.13672529     0.31100
H146        H  0.84482556  0.12203007  0.41622296     0.35100
H147        H  0.78940125  0.96594063  0.49935514     0.27900
H148        H  0.93994190  0.33293712  0.09714192     0.32100
H149        H  0.85965735  0.21079594  0.17159586     0.34900
H150        H  0.78230421  0.33725585  0.01713106     0.27600
H151        H  0.75590366  0.00150537  0.51351245     0.40400
H152        H  0.98382512  0.04910795  0.02522357     0.30500
H153        H  0.94931643  0.16694563  0.45017921     0.38100
H154        H  0.77413513  0.20505668  0.14378581     0.30000
H155        H  0.96206825  0.02412656  0.09643115     0.30000
H156        H  0.92368066  0.30511452  0.13419476     0.30300
C157        C  0.95035233  0.43095076  0.42375037     0.85700
C158        C  0.91923180  0.46320722  0.44371263    -0.54500
C159        C  0.91860659  0.45753901  0.98249599     0.08700
C160        C  0.94753771  0.41499739  0.99646969     0.19600
C161        C  0.98587752  0.44693407  0.44439162    -0.55200
C162        C  0.98521371  0.43585461  0.98157770     0.08800
C163        C  0.94299168  0.37080356  0.43555327    -0.54700
C164        C  0.93881112  0.36435148  0.97196904     0.09300
H165        H  0.90074365  0.99244537  0.42856471     0.13900
H166        H  0.94700084  0.40727900  0.02791417    -0.00400
H167        H  0.01073328  0.45960643  0.42924215     0.14200
H168        H  0.93591612  0.33880522  0.41527985     0.14000
C169        C  0.84612308  0.41218054  0.18657475     0.85700
C170        C  0.84070199  0.35800247  0.16623073    -0.54500
C171        C  0.80970292  0.35483961  0.14321398     0.08700
C172        C  0.78343362  0.40591143  0.14850227     0.19600
C173        C  0.84141218  0.45619796  0.15550033    -0.55200
C174        C  0.80865260  0.45491208  0.13590970     0.08800
C175        C  0.81249253  0.41679515  0.21201746    -0.54700
C176        C  0.77947198  0.41231269  0.19362671     0.09300
H177        H  0.86226948  0.32672202  0.16655902     0.13900
H178        H  0.75668566  0.40323343  0.13279629    -0.00400
H179        H  0.86278489  0.98807368  0.14676919     0.14200
H180        H  0.81470863  0.42071207  0.24301631     0.14000
Zr181      Zr  0.39355837  0.06112935  0.27633210     2.17500
O182        O  0.42136789  0.98817765  0.23784507    -0.52100
O183        O  0.42016399  0.49658657  0.32147395    -0.75300
O184        O  0.45396832  0.08445782  0.24966831    -0.82100
O185        O  0.29248638  0.00228741  0.25887272    -0.83800
O186        O  0.47330002  0.16494843  0.27543147    -0.79400
O187        O  0.35424633  0.49968376  0.24268105    -0.91100
O188        O  0.41624755  0.03273303  0.38046363    -0.77000
O189        O  0.41761256  0.11870394  0.32478558    -0.86500
O190        O  0.35137211  0.05043612  0.32843521    -0.86200
O191        O  0.39364479  0.15083667  0.24660571    -0.73000
O192        O  0.33330985  0.08762238  0.25340588    -0.85100
Zr193      Zr  0.31787692  0.23483591  0.32760500     2.26400
Zr194      Zr  0.41674187  0.20895711  0.29649184     2.06300
Zr195      Zr  0.29137314  0.08081240  0.30605884     2.10000
Zr196      Zr  0.37516608  0.11039751  0.37625821     1.78800
O197        O  0.23055457  0.08758366  0.27557137    -0.93900
O198        O  0.42637100  0.14626232  0.41415014    -0.41700
O199        O  0.31739828  0.14193921  0.35186445    -0.78300
O200        O  0.37741745  0.20216982  0.35172864    -0.97000
O201        O  0.35735972  0.23838465  0.27275626    -0.90300
O202        O  0.29084023  0.17387554  0.28053875    -0.93200
C203        C  0.42450183  0.49428370  0.35790113     1.00600
C204        C  0.32090094  0.48273006  0.23886108     1.13500
C205        C  0.47839666  0.12185353  0.25518275     1.04300
O206        O  0.46489268  0.23763036  0.34127356    -0.95300
O207        O  0.40441215  0.30407134  0.31181901    -0.91100
O208        O  0.36091092  0.30076885  0.35746369    -0.84200
C209        C  0.39193403  0.31879247  0.34424733     1.10900
O210        O  0.30369575  0.09592322  0.19801290    -0.97300
Zr211      Zr  0.33178034  0.17720203  0.22639709     1.88900
O212        O  0.30527206  0.30488631  0.27683725    -0.74000
O213        O  0.44518266  0.26322088  0.24549150    -0.53200
O214        O  0.37712399  0.20325708  0.17785067    -0.97900
O215        O  0.30758021  0.19733889  0.16207029    -0.55100
O216        O  0.28625691  0.25078163  0.22972111    -0.74500
C217        C  0.29466479  0.29827164  0.24196478     0.97900
O218        O  0.27465661  0.30165929  0.35420481    -0.63300
O219        O  0.27100562  0.00167693  0.34382463    -0.58100
O220        O  0.27016304  0.20518583  0.37393773    -0.94800
O221        O  0.25376649  0.11650588  0.36045474    -0.93200
O222        O  0.34450670  0.04350413  0.41772786    -0.93600
O223        O  0.35230973  0.14654863  0.43671689    -0.92300
C224        C  0.25075734  0.16143749  0.38023134     1.16700
H225        H  0.35027513  0.01270865  0.33739194     0.32700
H226        H  0.38789879  0.22111274  0.37341765     0.43500
H227        H  0.26554567  0.18424153  0.27468104     0.37000
H228        H  0.41030331  0.15146840  0.22506743     0.33500
H229        H  0.42833383  0.12103730  0.43653168     0.25300
H230        H  0.42615733  0.29088039  0.23800506     0.31200
H231        H  0.38077850  0.16974622  0.16224799     0.37100
H232        H  0.31807126  0.04526609  0.41002953     0.31600
H233        H  0.24634871  0.99246684  0.33313292     0.30500
H234        H  0.21426880  0.10413185  0.29519442     0.32200
H235        H  0.30877985  0.23774876  0.15842225     0.31100
H236        H  0.33890023  0.18080541  0.42947634     0.35100
H237        H  0.28621856  0.33800917  0.34946265     0.27900
H238        H  0.44762164  0.48220079  0.24941504     0.32100
H239        H  0.31980547  0.08654344  0.17604910     0.34900
H240        H  0.28537065  0.47021674  0.33094832     0.27600
H241        H  0.25293168  0.30107316  0.33675442     0.40400
H242        H  0.45320891  0.23701578  0.36689385     0.30500
H243        H  0.44874041  0.13828760  0.39878080     0.38100
H244        H  0.28072158  0.18937256  0.16343109     0.30000
H245        H  0.46470891  0.28476901  0.25854251     0.30000
H246        H  0.42672286  0.00496013  0.21248501     0.30300
C247        C  0.45032878  0.37734527  0.42672227     0.85700
C248        C  0.41886156  0.34449825  0.40759608    -0.54500
C249        C  0.41695913  0.35152132  0.36868682     0.08700
C250        C  0.44680125  0.39073542  0.35253938     0.19600
C251        C  0.48563055  0.36023985  0.40609577    -0.55200
C252        C  0.48436135  0.36833184  0.36744269     0.08800
C253        C  0.44279489  0.43697254  0.41374086    -0.54700
C254        C  0.44042492  0.44394341  0.37497609     0.09300
H255        H  0.40024704  0.31732505  0.42305140     0.13900
H256        H  0.44563787  0.39609007  0.32087785    -0.00400
H257        H  0.51082622  0.34826638  0.42128400     0.14200
H258        H  0.43673961  0.47010826  0.43350339     0.14000
C259        C  0.34678720  0.37463224  0.16375653     0.85700
C260        C  0.34840555  0.42696332  0.18726359    -0.54500
C261        C  0.31722305  0.43865864  0.20859740     0.08700
C262        C  0.28552517  0.39589486  0.20136897     0.19600
C263        C  0.33636955  0.33029396  0.19263438    -0.55200
C264        C  0.30467690  0.34002344  0.21249474     0.08800
C265        C  0.31334530  0.38231769  0.13791907    -0.54700
C266        C  0.28110799  0.39344451  0.15609759     0.09300
H267        H  0.37356356  0.45092154  0.18870050     0.13900
H268        H  0.25954348  0.40425713  0.21725528    -0.00400
H269        H  0.35363194  0.29441315  0.19806373     0.14200
H270        H  0.31502353  0.37853130  0.10688397     0.14000
Zr271      Zr  0.10440225  0.99621258  0.52282350     2.17500
O272        O  0.07640720  0.06855530  0.48299115    -0.52100
O273        O  0.07752257  0.06132574  0.07172325    -0.75300
O274        O  0.04504041  0.97013121  0.49420831    -0.82100
O275        O  0.20498947  0.05888019  0.50966911    -0.83800
O276        O  0.02541817  0.39044502  0.02441699    -0.79400
O277        O  0.14481819  0.06052231  0.49149636    -0.91100
O278        O  0.08364314  0.02504813  0.13148147    -0.77000
O279        O  0.08020595  0.43731099  0.07164315    -0.86500
O280        O  0.14511817  0.00664788  0.07915093    -0.86200
O281        O  0.10685222  0.40696067  0.49503134    -0.73000
O282        O  0.16588189  0.47197883  0.50214753    -0.85100
Zr283      Zr  0.18095125  0.32280988  0.07849154     2.26400
Zr284      Zr  0.08264973  0.34732166  0.04426300     2.06300
Zr285      Zr  0.20554548  0.47909646  0.05645757     2.10000
Zr286      Zr  0.12109450  0.44584530  0.12460203     1.78800
O287        O  0.26841518  0.47524902  0.52869860    -0.93900
O288        O  0.06712794  0.41430551  0.16018189    -0.41700
O289        O  0.17969243  0.41595486  0.10186088    -0.78300
O290        O  0.12049792  0.35403015  0.10078805    -0.97000
O291        O  0.14270977  0.31940264  0.02240714    -0.90300
O292        O  0.20827245  0.38581260  0.03236295    -0.93200
C293        C  0.07289157  0.06281263  0.10806061     1.00600
C294        C  0.17794758  0.07898986  0.48919321     1.13500
C295        C  0.02040581  0.43399116  0.50410051     1.04300
O296        O  0.03430646  0.31803910  0.08838811    -0.95300
O297        O  0.09530513  0.25206821  0.05986738    -0.91100
O298        O  0.13739450  0.25574344  0.10721117    -0.84200
C299        C  0.10672752  0.23751350  0.09299434     1.10900
O300        O  0.12625572  0.36464241  0.42350865    -0.97300
Zr301      Zr  0.16920856  0.38261557  0.47610320     1.88900
O302        O  0.19443484  0.25358137  0.02798808    -0.74000
O303        O  0.05471035  0.29912205  0.49091167    -0.53200
O304        O  0.18972940  0.35376743  0.41266735    -0.97900
O305        O  0.20174374  0.46248848  0.45033634    -0.55100
O306        O  0.21561389  0.31046285  0.48079342    -0.74500
C307        C  0.20707861  0.26238780  0.49213182     0.97900
O308        O  0.22457350  0.25621432  0.10609437    -0.63300
O309        O  0.22230065  0.06171171  0.09309691    -0.58100
O310        O  0.22914839  0.35376905  0.12423268    -0.94800
O311        O  0.24399465  0.44345087  0.11069414    -0.93200
O312        O  0.15668578  0.00310368  0.16857065    -0.93600
O313        O  0.14208088  0.40334881  0.18445822    -0.92300
C314        C  0.24790447  0.39817799  0.13041874     1.16700
H315        H  0.14603348  0.04393187  0.08859981     0.32700
H316        H  0.10939033  0.33466552  0.12212827     0.43500
H317        H  0.23391349  0.37663712  0.02755210     0.37000
H318        H  0.09032909  0.40616945  0.47324893     0.33500
H319        H  0.06506306  0.44000084  0.18198969     0.25300
H320        H  0.07569968  0.28220765  0.47700716     0.31200
H321        H  0.21674473  0.36069517  0.41213655     0.37100
H322        H  0.18265353  0.99009181  0.16653908     0.31600
H323        H  0.22072965  0.05079665  0.12045410     0.30500
H324        H  0.27597998  0.51430275  0.52646559     0.32200
H325        H  0.19482650  0.46431205  0.42283674     0.31100
H326        H  0.16092833  0.37591541  0.17659573     0.35100
H327        H  0.21232319  0.21999664  0.10340314     0.27900
H328        H  0.05155516  0.07575679  0.49384549     0.32100
H329        H  0.12177134  0.40107207  0.41126258     0.34900
H330        H  0.24913069  0.06650253  0.08834478     0.27600
H331        H  0.24544115  0.25495573  0.08775851     0.40400
H332        H  0.01533617  0.30065822  0.07187909     0.30500
H333        H  0.04568335  0.42356261  0.14347449     0.38100
H334        H  0.22824725  0.45171700  0.45055323     0.30000
H335        H  0.04165486  0.26764775  0.50291595     0.30000
H336        H  0.07260210  0.54709287  0.45680434     0.30300
C337        C  0.04707606  0.18033288  0.17507076     0.85700
C338        C  0.07864154  0.21277195  0.15583636    -0.54500
C339        C  0.08069953  0.20561581  0.11713172     0.08700
C340        C  0.05060524  0.16662669  0.10115754     0.19600
C341        C  0.01177660  0.19762503  0.15390556    -0.55200
C342        C  0.01296602  0.18949290  0.11534978     0.08800
C343        C  0.05440601  0.12047698  0.16305232    -0.54700
C344        C  0.05683177  0.11327056  0.12442328     0.08500
H345        H  0.09748128  0.23957618  0.17118313     0.13900
H346        H  0.05182933  0.16118734  0.06958216    -0.00400
H347        H  0.98664118  0.20981625  0.16874388     0.14200
H348        H  0.06043438  0.08742049  0.18331391     0.14000
C349        C  0.15302762  0.18966002  0.41391090     0.85700
C350        C  0.15055178  0.13802100  0.43856053    -0.54500
C351        C  0.18176783  0.12452818  0.45957200     0.08700
C352        C  0.21430115  0.16548340  0.45146287     0.19600
C353        C  0.16506255  0.23405159  0.44169742    -0.55200
C354        C  0.19663541  0.22248045  0.46187387     0.08800
C355        C  0.18578257  0.17974726  0.38793934    -0.54700
C356        C  0.21802702  0.16710596  0.40607546     0.09300
H357        H  0.12484547  0.11565812  0.44074464     0.13900
H358        H  0.24029972  0.15583906  0.46732422    -0.00400
H359        H  0.14864644  0.27082464  0.44661421     0.14200
H360        H  0.18369565  0.18342128  0.35686197     0.14000
C361        C  0.04649307  0.17293194  0.28533418     0.15200
C362        C  0.05375684  0.15199266  0.32202142    -0.33800
C363        C  0.07465962  0.18485908  0.34668261     0.19600
C364        C  0.08482423  0.23803922  0.33658954     0.01800
C365        C  0.07490396  0.26057303  0.30098451    -0.23600
C366        C  0.05704164  0.22589377  0.27505371     0.11000
S367        S  0.03265626  0.13336411  0.24807881    -0.07200
C368        C  0.04391531  0.18735256  0.21782936    -0.10700
C369        C  0.05430324  0.23506395  0.23648413    -0.27300
S370        S  0.11745569  0.26602327  0.36564194    -0.04500
C371        C  0.11891831  0.20462453  0.39083626    -0.17900
C372        C  0.09356374  0.16583917  0.37810243    -0.15900
H373        H  0.04784929  0.10937505  0.32910116     0.19400
H374        H  0.08516452  0.30051649  0.29202152     0.15500
H375        H  0.06304124  0.27271751  0.22240363     0.18000
H376        H  0.09248131  0.12325831  0.38738502     0.11300
C377        C  0.45266161  0.38799564  0.53682270     0.15200
C378        C  0.44650564  0.40857669  0.07101305    -0.33800
C379        C  0.42482619  0.37736221  0.09622583     0.19600
C380        C  0.41410613  0.32412256  0.08741208     0.01800
C381        C  0.42387806  0.30142620  0.55496042    -0.23600
C382        C  0.44157771  0.33490173  0.52801542     0.11000
S383        S  0.46675154  0.42569716  0.49844230    -0.07200
C384        C  0.45397184  0.37129339  0.46965604    -0.10700
C385        C  0.44337574  0.32449055  0.48963842    -0.27300
S386        S  0.38150099  0.29754020  0.11695876    -0.04500
C387        C  0.38052965  0.35965905  0.14058717    -0.17900
C388        C  0.40607402  0.39774979  0.12708445    -0.15900
H389        H  0.45311141  0.45115953  0.07702804     0.19400
H390        H  0.41344001  0.26121012  0.54722398     0.15500
H391        H  0.43384907  0.28672752  0.47662880     0.18000
H392        H  0.40757555  0.44040852  0.13566421     0.11300
C393        C  0.94162711  0.47169900  0.31752203     0.15200
C394        C  0.92425828  0.49357115  0.28500977    -0.33800
C395        C  0.91651194  0.45724516  0.25520495     0.19600
C396        C  0.92938451  0.40328698  0.25554895     0.01800
C397        C  0.94968182  0.38269942  0.28681470    -0.23600
C398        C  0.95346215  0.41723364  0.31857234     0.11000
S399        S  0.94095327  0.50329656  0.36080524    -0.07200
C400        C  0.95298840  0.44089838  0.38119280    -0.10700
C401        C  0.96129732  0.39989453  0.35500247    -0.27300
S402        S  0.90979128  0.36255199  0.22153953    -0.04500
C403        C  0.88171481  0.41764460  0.20898934    -0.17900
C404        C  0.88975469  0.46577970  0.22818829    -0.15900
H405        H  0.91224012  0.53456093  0.28540040     0.19400
H406        H  0.95703444  0.33941142  0.28866443     0.15500
H407        H  0.96918386  0.35799055  0.36222993     0.18000
H408        H  0.87317696  0.50287935  0.22633227     0.11300
C409        C  0.58274329  0.07077022  0.01106607     0.15200
C410        C  0.57329759  0.04752845  0.04653982    -0.33800
C411        C  0.55551816  0.08174612  0.07290533     0.19600
C412        C  0.54434790  0.13474068  0.06297520     0.01800
C413        C  0.55108475  0.15631339  0.02639818    -0.23600
C414        C  0.57211170  0.12410655  0.00142329     0.11000
S415        S  0.61551801  0.04367935  0.98185881    -0.07200
C416        C  0.61703868  0.10272348  0.45782746    -0.10700
C417        C  0.59078804  0.14400387  0.97025365    -0.27300
S418        S  0.53053686  0.17371469  0.10056329    -0.04500
C419        C  0.54285888  0.11970671  0.13062058    -0.17900
C420        C  0.55348706  0.07223891  0.11157953    -0.15900
H421        H  0.58397227  0.00747305  0.05513389     0.19400
H422        H  0.54478227  0.19902727  0.01970515     0.15500
H423        H  0.58993360  0.18397181  0.46077538     0.18000
H424        H  0.56284504  0.03456400  0.12544293     0.11300
Zr425      Zr  0.60242242  0.31182978  0.82244385     2.17500
O426        O  0.57620679  0.24078793  0.86416245    -0.52100
O427        O  0.57573111  0.24759951  0.77702856    -0.75300
O428        O  0.54199173  0.33530739  0.84829644    -0.82100
O429        O  0.70328966  0.25117959  0.83999872    -0.83800
O430        O  0.52377542  0.41844951  0.82445817    -0.79400
O431        O  0.64258878  0.24739738  0.85538970    -0.91100
O432        O  0.58151643  0.28371521  0.71725218    -0.77000
O433        O  0.57813335  0.37311514  0.77522860    -0.86500
O434        O  0.64310533  0.30171371  0.76930773    -0.86200
O435        O  0.60389358  0.40041539  0.85297008    -0.73000
O436        O  0.66283476  0.33629312  0.84492627    -0.85100
Zr437      Zr  0.67913710  0.48458325  0.77028436     2.26400
Zr438      Zr  0.58076117  0.46205849  0.80442535     2.06300
Zr439      Zr  0.70338602  0.32894749  0.79150311     2.10000
Zr440      Zr  0.61909479  0.36472845  0.72243515     1.78800
O441        O  0.76543805  0.32756283  0.81914239    -0.93900
O442        O  0.56529752  0.39269974  0.68427314    -0.41700
O443        O  0.67795660  0.39250232  0.74567348    -0.78300
O444        O  0.61825351  0.45529509  0.74792282    -0.97000
O445        O  0.64104070  0.48846130  0.82623135    -0.90300
O446        O  0.70592859  0.42123413  0.81704433    -0.93200
C447        C  0.57092605  0.24618023  0.74062347     1.00600
C448        C  0.67610777  0.23051447  0.85955251     1.13500
C449        C  0.51810615  0.37400740  0.84351767     1.04300
O450        O  0.52938391  0.49848609  0.76628460    -0.95300
O451        O  0.59321295  0.05597228  0.78799660    -0.91100
O452        O  0.63625104  0.05344949  0.74182014    -0.84200
C453        C  0.60530491  0.07135347  0.75545896     1.10900
O454        O  0.69603291  0.34436675  0.90109458    -0.97300
Zr455      Zr  0.66622323  0.42499690  0.87216177     1.88900
O456        O  0.69346278  0.05483481  0.82086447    -0.74000
O457        O  0.55901743  0.51440016  0.85935202    -0.53200
O458        O  0.62132525  0.45127153  0.92091661    -0.97900
O459        O  0.68971406  0.44363093  0.93677190    -0.55100
O460        O  0.71199621  0.49756730  0.86686089    -0.74500
C461        C  0.70336511  0.04718938  0.85592232     0.97900
O462        O  0.72295139  0.55004619  0.74291873    -0.63300
O463        O  0.71892264  0.24845514  0.75333623    -0.58100
O464        O  0.72758731  0.45496047  0.72478916    -0.94800
O465        O  0.74173672  0.36491730  0.73822663    -0.93200
O466        O  0.65508657  0.30705849  0.67943928    -0.93600
O467        O  0.63550927  0.41327276  0.66351961    -0.92300
C468        C  0.74603876  0.41012154  0.71873291     1.16700
H469        H  0.64400493  0.26432728  0.76004529     0.32700
H470        H  0.60687395  0.47497948  0.72672968     0.43500
H471        H  0.73151229  0.43001553  0.82238493     0.37000
H472        H  0.58740730  0.40029425  0.87466642     0.33500
H473        H  0.56118507  0.36214400  0.66610760     0.25300
H474        H  0.58054302  0.53686250  0.86724500     0.31200
H475        H  0.61756318  0.41760608  0.93665854     0.37100
H476        H  0.67956011  0.30309804  0.69214782     0.31600
H477        H  0.74617712  0.24483269  0.75578280     0.30500
H478        H  0.76157026  0.33428022  0.84681518     0.32200
H479        H  0.68875710  0.48405005  0.94008100     0.31100
H480        H  0.66114338  0.42625880  0.66796118     0.35100
H481        H  0.71059387  0.58643506  0.74487886     0.27900
H482        H  0.55252368  0.22964501  0.85211540     0.32100
H483        H  0.67897294  0.33232038  0.92168440     0.34900
H484        H  0.70902210  0.21654875  0.76783102     0.27600
H485        H  0.74359149  0.55156823  0.76169856     0.40400
H486        H  0.53784925  0.49625114  0.73937477     0.30500
H487        H  0.54412044  0.39067309  0.70218145     0.38100
H488        H  0.71654081  0.43496636  0.93592030     0.30000
H489        H  0.54122860  0.54147072  0.84833094     0.30000
H490        H  0.56915089  0.25927060  0.88830659     0.30300
C491        C  0.54588809  0.12909642  0.67292909     0.85700
C492        C  0.57780122  0.09702655  0.69236635    -0.54500
C493        C  0.57968949  0.10400579  0.73110009     0.08700
C494        C  0.54931952  0.14271259  0.74694287     0.19600
C495        C  0.51080438  0.11151059  0.69386892    -0.55200
C496        C  0.51189706  0.11991294  0.73242950     0.08800
C497        C  0.55256211  0.18905078  0.68513592    -0.54700
C498        C  0.55502376  0.19606003  0.72389460     0.09300
H499        H  0.59681260  0.07026009  0.67716027     0.13900
H500        H  0.55054036  0.14795745  0.77854774    -0.00400
H501        H  0.48574510  0.09925969  0.67882452     0.14200
H502        H  0.55815459  0.22223025  0.66495253     0.14000
C503        C  0.65063775  0.12091846  0.93450291     0.85700
C504        C  0.64937338  0.17478753  0.91192655    -0.54500
C505        C  0.68033632  0.18654820  0.89037397     0.08700
C506        C  0.71186992  0.14277143  0.89692440     0.19600
C507        C  0.66075895  0.07795077  0.90486294    -0.55200
C508        C  0.69254906  0.08806358  0.88515511     0.08800
C509        C  0.68426663  0.12602887  0.96026680    -0.54700
C510        C  0.71644557  0.13733312  0.94201245     0.09300
H511        H  0.62447895  0.19964668  0.91084965     0.13900
H512        H  0.73785845  0.15145399  0.88112420    -0.00400
H513        H  0.64353964  0.04255579  0.89913876     0.14200
H514        H  0.68269640  0.12108356  0.99127718     0.14000
Zr515      Zr  0.89265306  0.24617813  0.57146209     2.17500
O516        O  0.91490425  0.31666837  0.61540166    -0.52100
O517        O  0.91828924  0.31210394  0.52689252    -0.75300
O518        O  0.95451900  0.22486705  0.59752295    -0.82100
O519        O  0.78753472  0.29569598  0.59012726    -0.83800
O520        O  0.97433781  0.14375186  0.57278288    -0.79400
O521        O  0.84860052  0.30507516  0.60316786    -0.91100
O522        O  0.91460410  0.27492579  0.46763703    -0.77000
O523        O  0.91775019  0.18875699  0.52360808    -0.86500
O524        O  0.85030945  0.25483018  0.51878249    -0.86200
O525        O  0.89376961  0.15678192  0.60130398    -0.73000
O526        O  0.83317505  0.21666292  0.59224662    -0.85100
Zr527      Zr  0.81977760  0.06969215  0.52124169     2.26400
Zr528      Zr  0.91830284  0.09889341  0.55207491     2.06300
Zr529      Zr  0.79066712  0.22222142  0.54016276     2.10000
Zr530      Zr  0.87536258  0.19516209  0.47152330     1.78800
O531        O  0.72991469  0.21276148  0.56971284    -0.93900
O532        O  0.92776293  0.16171488  0.93382267    -0.41700
O533        O  0.81788263  0.16137309  0.49481690    -0.78300
O534        O  0.87860769  0.10326653  0.49666472    -0.97000
O535        O  0.85968618  0.06842950  0.57587526    -0.90300
O536        O  0.79178935  0.13029544  0.56711194    -0.93200
C537        C  0.92436207  0.31284335  0.49080777     1.00600
C538        C  0.81448495  0.31763939  0.60914354     1.13500
C539        C  0.97935514  0.18746353  0.59230147     1.04300
O540        O  0.96497028  0.07685855  0.50425545    -0.95300
O541        O  0.90996068  0.00273214  0.53735851    -0.91100
O542        O  0.86354066  0.00323164  0.49386161    -0.84200
C543        C  0.89530905  0.98608241  0.50625066     1.10900
O544        O  0.84405792  0.18081529  0.67984478    -0.97300
Zr545      Zr  0.83258119  0.12921025  0.62129222     1.88900
O546        O  0.81026041  0.00058122  0.57343805    -0.74000
O547        O  0.94952012  0.04829831  0.60364010    -0.53200
O548        O  0.86376679  0.08104531  0.67346693    -0.97900
O549        O  0.77567762  0.16314971  0.65059996    -0.55100
O550        O  0.79512823  0.04771488  0.62647634    -0.74500
C551        C  0.80157792  0.00268750  0.60924717     0.97900
O552        O  0.77605303  0.00315901  0.99478587    -0.63300
O553        O  0.77092785  0.30300963  0.50335045    -0.58100
O554        O  0.76996607  0.09644279  0.47527847    -0.94800
O555        O  0.75272877  0.18541082  0.48707239    -0.93200
O556        O  0.83949277  0.25733452  0.92961838    -0.93600
O557        O  0.85532858  0.15667930  0.90984724    -0.92300
C558        C  0.74988784  0.13978212  0.46836306     1.16700
H559        H  0.84849997  0.29243003  0.50965622     0.32700
H560        H  0.88925914  0.08348741  0.47550247     0.43500
H561        H  0.76719305  0.11785319  0.57359420     0.37000
H562        H  0.90979180  0.15605686  0.62357541     0.33500
H563        H  0.93396667  0.19238694  0.91612212     0.25300
H564        H  0.92979447  0.02598893  0.61575693     0.31200
H565        H  0.84351269  0.07308782  0.69174184     0.37100
H566        H  0.81403447  0.25606516  0.94007159     0.31600
H567        H  0.74481840  0.30899578  0.51095236     0.30500
H568        H  0.71201513  0.21417728  0.54812529     0.32200
H569        H  0.75590226  0.13770793  0.64224823     0.31100
H570        H  0.85227431  0.11680008  0.91510173     0.35100
H571        H  0.78922646  0.96741571  0.99732353     0.27900
H572        H  0.93814413  0.33085780  0.60410260     0.32100
H573        H  0.84311612  0.22003692  0.67183316     0.34900
H574        H  0.78452063  0.33422189  0.51479935     0.27600
H575        H  0.75586558  0.00104070  0.01388380     0.40400
H576        H  0.98262759  0.05202933  0.51776726     0.30500
H577        H  0.94864931  0.16027457  0.95232536     0.38100
H578        H  0.77007531  0.19820287  0.63701729     0.30000
H579        H  0.96552960  0.02111432  0.59055532     0.30000
H580        H  0.92270333  0.29676465  0.63902508     0.30300
C581        C  0.94945452  0.43464869  0.92291695     0.85700
C582        C  0.91988220  0.46813784  0.94410581    -0.54500
C583        C  0.91790249  0.45472812  0.48241618     0.08700
C584        C  0.94800335  0.41481121  0.49767955     0.19600
C585        C  0.98577931  0.44678533  0.94331058    -0.55200
C586        C  0.98526051  0.43737825  0.48284613     0.08800
C587        C  0.94010854  0.37450827  0.93337085    -0.54700
C588        C  0.94113642  0.36255324  0.47427194     0.09300
H589        H  0.90143170  0.99374933  0.92807678     0.13900
H590        H  0.94734866  0.40847167  0.52926773    -0.00400
H591        H  0.01073519  0.45909254  0.92819052     0.14200
H592        H  0.93230195  0.34392674  0.91230175     0.14000
C593        C  0.84569635  0.41189878  0.68661138     0.85700
C594        C  0.84022107  0.35746796  0.66672443    -0.54500
C595        C  0.80945134  0.35448334  0.64336166     0.08700
C596        C  0.78326663  0.40586937  0.64825986     0.19600
C597        C  0.84131561  0.45567134  0.65528277    -0.55200
C598        C  0.80861287  0.45462079  0.63565217     0.08800
C599        C  0.81200226  0.41705890  0.71187283    -0.54700
C600        C  0.77910144  0.41293954  0.69329273     0.09300
H601        H  0.86160376  0.32593263  0.66753790     0.13900
H602        H  0.75656653  0.40324019  0.63247094    -0.00400
H603        H  0.86408797  0.98684310  0.64774629     0.14200
H604        H  0.81407031  0.42118949  0.74287657     0.14000
Zr605      Zr  0.39170717  0.06243478  0.77506442     2.17500
O606        O  0.41949474  0.99095981  0.73527075    -0.52100
O607        O  0.41982813  0.49779209  0.82110295    -0.75300
O608        O  0.45236975  0.08610865  0.74830707    -0.82100
O609        O  0.29051362  0.00418738  0.75812040    -0.83800
O610        O  0.47159980  0.16647005  0.77421121    -0.79400
O611        O  0.35250406  0.50193664  0.74281445    -0.91100
O612        O  0.41588947  0.03351895  0.87941653    -0.77000
O613        O  0.41614761  0.11976653  0.82335811    -0.86500
O614        O  0.35009542  0.05129168  0.82762171    -0.86200
O615        O  0.39072171  0.15191380  0.74531017    -0.73000
O616        O  0.33103307  0.08911708  0.75292162    -0.85100
Zr617      Zr  0.31635326  0.23564376  0.82824301     2.26400
Zr618      Zr  0.41463496  0.20972136  0.79479794     2.06300
Zr619      Zr  0.28983912  0.08166687  0.80611965     2.10000
Zr620      Zr  0.37427197  0.11078484  0.87542852     1.78800
O621        O  0.22794267  0.08668908  0.77808958    -0.93900
O622        O  0.42446944  0.14255693  0.91651827    -0.41700
O623        O  0.31619545  0.14249525  0.85201353    -0.78300
O624        O  0.37641750  0.20272538  0.85092709    -0.97000
O625        O  0.35479474  0.23956130  0.77263005    -0.90300
O626        O  0.28857991  0.17509702  0.78124138    -0.93200
C627        C  0.42324383  0.49468380  0.85757438     1.00600
C628        C  0.31928708  0.48412516  0.73927154     1.13500
C629        C  0.47686629  0.12347915  0.75392707     1.04300
O630        O  0.46385402  0.23957914  0.83781405    -0.95300
O631        O  0.40365320  0.30479967  0.81055185    -0.91100
O632        O  0.36040982  0.30144596  0.85661125    -0.84200
C633        C  0.39128935  0.31949227  0.84302677     1.10900
O634        O  0.29832744  0.10033611  0.69649454    -0.97300
Zr635      Zr  0.32851021  0.17891780  0.72631649     1.88900
O636        O  0.30248100  0.30641269  0.77837943    -0.74000
O637        O  0.44044658  0.26079611  0.74081882    -0.53200
O638        O  0.37324669  0.20477543  0.67729135    -0.97900
O639        O  0.30444756  0.20165686  0.66230003    -0.55100
O640        O  0.28337884  0.25278190  0.73110069    -0.74500
C641        C  0.29233511  0.30002663  0.74335934     0.97900
O642        O  0.27499626  0.30284062  0.85761521    -0.63300
O643        O  0.27185470  0.00046101  0.84309837    -0.58100
O644        O  0.26918328  0.20514791  0.87504518    -0.94800
O645        O  0.25196483  0.11721689  0.86030872    -0.93200
O646        O  0.34191467  0.04216827  0.91390201    -0.93600
O647        O  0.35057473  0.14722127  0.93547736    -0.92300
C648        C  0.24941540  0.16158292  0.88076888     1.16700
H649        H  0.34898281  0.01348858  0.83641732     0.32700
H650        H  0.38742582  0.22157443  0.87239255     0.43500
H651        H  0.26316667  0.18544584  0.77595600     0.37000
H652        H  0.40715623  0.15238543  0.72357833     0.33500
H653        H  0.42347196  0.11838940  0.93951070     0.25300
H654        H  0.42016920  0.28559492  0.73210268     0.31200
H655        H  0.37654161  0.17132351  0.66154889     0.37100
H656        H  0.31587689  0.04418918  0.90488293     0.31600
H657        H  0.24516143  0.99575137  0.83733929     0.30500
H658        H  0.23196132  0.09825039  0.75113446     0.32200
H659        H  0.30653999  0.24205172  0.65906449     0.31100
H660        H  0.32599847  0.16303908  0.92886343     0.35100
H661        H  0.28704657  0.33897085  0.85340530     0.27900
H662        H  0.44626025  0.48314585  0.74794092     0.32100
H663        H  0.31601150  0.08749525  0.67678661     0.34900
H664        H  0.28307657  0.46925194  0.83022422     0.27600
H665        H  0.25278540  0.30396608  0.84083369     0.40400
H666        H  0.45431729  0.23275015  0.86399150     0.30500
H667        H  0.44742148  0.13122142  0.90320718     0.38100
H668        H  0.27742237  0.19503898  0.66366385     0.30000
H669        H  0.45896956  0.28563995  0.75248213     0.30000
H670        H  0.42482429  0.00856450  0.71017101     0.30300
C671        C  0.45037501  0.37713226  0.92507694     0.85700
C672        C  0.41891064  0.34418099  0.90607324    -0.54500
C673        C  0.41643231  0.35203907  0.86728899     0.08700
C674        C  0.44575812  0.39193963  0.85107138     0.19600
C675        C  0.48544650  0.36111836  0.90378147    -0.55200
C676        C  0.48357198  0.36995796  0.86525048     0.08800
C677        C  0.44218244  0.43685374  0.91284884    -0.54700
C678        C  0.43931883  0.44443413  0.87417457     0.09300
H679        H  0.40063032  0.31645211  0.92146691     0.13900
H680        H  0.44415257  0.39784320  0.81946887    -0.00400
H681        H  0.51094154  0.34927851  0.91848226     0.14200
H682        H  0.43622528  0.46952919  0.93301486     0.14000
C683        C  0.34634029  0.37514302  0.66564115     0.85700
C684        C  0.34723987  0.42823003  0.68825050    -0.54500
C685        C  0.31579790  0.44002797  0.70906022     0.08700
C686        C  0.28440492  0.39675138  0.70192745     0.19600
C687        C  0.33575515  0.33149412  0.69508466    -0.55200
C688        C  0.30354497  0.34140791  0.71412096     0.08800
C689        C  0.31327289  0.38146081  0.63920698    -0.54700
C690        C  0.28077611  0.39284496  0.65670155     0.09300
H691        H  0.37221210  0.45255876  0.68966714     0.13900
H692        H  0.25810430  0.40533600  0.71719027    -0.00400
H693        H  0.35299909  0.29582264  0.70118962     0.14200
H694        H  0.31543015  0.37690464  0.60825616     0.14000
Zr695      Zr  0.10387994  0.99755092  0.02590103     2.17500
O696        O  0.07480363  0.07159657  0.98842208    -0.52100
O697        O  0.07746301  0.06119688  0.56798909    -0.75300
O698        O  0.04434682  0.97214588  0.99725250    -0.82100
O699        O  0.20478907  0.05923958  0.01063718    -0.83800
O700        O  0.02610580  0.39088232  0.52461865    -0.79400
O701        O  0.14425147  0.06143611  0.99384710    -0.91100
O702        O  0.08342289  0.02536889  0.62786587    -0.77000
O703        O  0.08091130  0.43707726  0.57188311    -0.86500
O704        O  0.14506322  0.00617801  0.57641662    -0.86200
O705        O  0.10639064  0.40639044  0.99485894    -0.73000
O706        O  0.16541512  0.47201390  0.00201612    -0.85100
Zr707      Zr  0.18218304  0.32268798  0.57743791     2.26400
Zr708      Zr  0.08348078  0.34737305  0.54417370     2.06300
Zr709      Zr  0.20648825  0.47841389  0.55618220     2.10000
Zr710      Zr  0.12208488  0.44494633  0.62468211     1.78800
O711        O  0.26774942  0.47846161  0.02958824    -0.93900
O712        O  0.06871123  0.41425885  0.66164564    -0.41700
O713        O  0.18057893  0.41529488  0.60145032    -0.78300
O714        O  0.12182378  0.35333038  0.60033850    -0.97000
O715        O  0.14342663  0.31976497  0.52172244    -0.90300
O716        O  0.20910653  0.38571268  0.53121911    -0.93200
C717        C  0.07279883  0.06296613  0.60439337     1.00600
C718        C  0.17743241  0.07950369  0.99070877     1.13500
C719        C  0.02011946  0.43280789  0.00312964     1.04300
O720        O  0.03694700  0.31651438  0.58983464    -0.95300
O721        O  0.09713929  0.25187957  0.55807967    -0.91100
O722        O  0.13934127  0.25444562  0.60533064    -0.84200
C723        C  0.10866291  0.23661139  0.59103940     1.10900
O724        O  0.12752243  0.36498576  0.92299397    -0.97300
Zr725      Zr  0.16902877  0.38198252  0.97690822     1.88900
O726        O  0.19642938  0.25411117  0.52682551    -0.74000
O727        O  0.05442589  0.29714963  0.99145939    -0.53200
O728        O  0.19071944  0.35091307  0.91444043    -0.97900
O729        O  0.20257009  0.46097376  0.95143938    -0.55100
O730        O  0.21517302  0.30963566  0.98267984    -0.74500
C731        C  0.20595421  0.26169322  0.99357837     0.97900
O732        O  0.22611260  0.25757181  0.60617648    -0.63300
O733        O  0.22576727  0.05682270  0.59353704    -0.58100
O734        O  0.22943886  0.35306745  0.62414346    -0.94800
O735        O  0.24464839  0.44249464  0.61046722    -0.93200
O736        O  0.15726421  0.00298790  0.66519627    -0.93600
O737        O  0.14151483  0.40246809  0.68507439    -0.92300
C738        C  0.24815473  0.39740745  0.63043393     1.16700
H739        H  0.14584443  0.04364919  0.58552448     0.32700
H740        H  0.11107525  0.33320963  0.62152686     0.43500
H741        H  0.23468496  0.37651528  0.52612253     0.37000
H742        H  0.09024781  0.40513806  0.97277847     0.33500
H743        H  0.06179639  0.44615544  0.67768389     0.25300
H744        H  0.07537271  0.28770229  0.97444111     0.31200
H745        H  0.21736796  0.36035090  0.91353031     0.37100
H746        H  0.18133871  0.00731110  0.65201888     0.31600
H747        H  0.24901572  0.06923310  0.58128983     0.30500
H748        H  0.26445977  0.48969433  0.00242968     0.32200
H749        H  0.19353641  0.46540351  0.92472455     0.31100
H750        H  0.15230465  0.36649215  0.67771965     0.35100
H751        H  0.21334850  0.22153761  0.60575746     0.27900
H752        H  0.05023533  0.07820644  0.00011505     0.32100
H753        H  0.12380987  0.40152844  0.91065292     0.34900
H754        H  0.20764721  0.08645905  0.58757316     0.27600
H755        H  0.24622155  0.25392931  0.58711681     0.40400
H756        H  0.01673462  0.30153411  0.57376133     0.30500
H757        H  0.04833950  0.41136732  0.64265657     0.38100
H758        H  0.22847584  0.44796201  0.94888092     0.30000
H759        H  0.04661974  0.26146591  0.00270191     0.30000
H760        H  0.07199241  0.54909656  0.95727699     0.30300
C761        C  0.04892008  0.17959507  0.67297929     0.85700
C762        C  0.08101784  0.21100841  0.65395336    -0.54500
C763        C  0.08267172  0.20472359  0.61510543     0.08700
C764        C  0.05181789  0.16744818  0.59879526     0.19600
C765        C  0.01391477  0.19898530  0.65212806    -0.55200
C766        C  0.01468954  0.19141430  0.61347001     0.08800
C767        C  0.05488143  0.11974024  0.66006095    -0.54700
C768        C  0.05711694  0.11338945  0.62125883     0.08500
H769        H  0.10027988  0.23685438  0.66955909     0.13900
H770        H  0.05280684  0.16278344  0.56714222    -0.00400
H771        H  0.98898235  0.21132437  0.66726123     0.14200
H772        H  0.06031409  0.08593557  0.67988571     0.14000
C773        C  0.15185965  0.18939573  0.91514342     0.85700
C774        C  0.14951844  0.13788660  0.93999684    -0.54500
C775        C  0.18094483  0.12451155  0.96073222     0.08700
C776        C  0.21338375  0.16543689  0.95231770     0.19600
C777        C  0.16403575  0.23392430  0.94279698    -0.55200
C778        C  0.19567022  0.22231560  0.96290421     0.08800
C779        C  0.18444520  0.17934545  0.88899137    -0.54700
C780        C  0.21682678  0.16695158  0.90689177     0.09300
H781        H  0.12373735  0.11564798  0.94254648     0.13900
H782        H  0.23948714  0.15585594  0.96801434    -0.00400
H783        H  0.14755002  0.27057853  0.94788146     0.14200
H784        H  0.18214077  0.18288368  0.85792137     0.14000
C785        C  0.04916944  0.17020890  0.78351092     0.15200
C786        C  0.05648395  0.14881268  0.82007240    -0.33800
C787        C  0.07595101  0.18226538  0.84557182     0.19600
C788        C  0.08495297  0.23618526  0.83630994     0.01800
C789        C  0.07554169  0.25876559  0.80047194    -0.23600
C790        C  0.05891725  0.22370927  0.77378191     0.11000
S791        S  0.03562032  0.13106577  0.74590938    -0.07200
C792        C  0.04621386  0.18576184  0.71599984    -0.10700
C793        C  0.05615768  0.23341767  0.73514745    -0.27300
S794        S  0.11543966  0.26562612  0.86721566    -0.04500
C795        C  0.11765888  0.20383373  0.89201566    -0.17900
C796        C  0.09414213  0.16378149  0.87759848    -0.15900
H797        H  0.05130532  0.10583398  0.82668847     0.19400
H798        H  0.08491428  0.29947685  0.79217460     0.15500
H799        H  0.06443219  0.27150319  0.72131933     0.18000
H800        H  0.09410459  0.12092812  0.88638012     0.11300
C801        C  0.45372551  0.38606793  0.03500643     0.15200
C802        C  0.44540256  0.41064854  0.57277551    -0.33800
C803        C  0.42430841  0.37905830  0.59828088     0.19600
C804        C  0.41419366  0.32547049  0.58976305     0.01800
C805        C  0.42362316  0.30020550  0.05251980    -0.23600
C806        C  0.44196791  0.33340779  0.02589004     0.11000
S807        S  0.46845749  0.42375378  0.99685340    -0.07200
C808        C  0.45480149  0.37012498  0.96781308    -0.10700
C809        C  0.44374125  0.32335749  0.98750840    -0.27300
S810        S  0.38191798  0.29843127  0.61946245    -0.04500
C811        C  0.38044398  0.36056300  0.64296947    -0.17900
C812        C  0.40548840  0.39920772  0.62914998    -0.15900
H813        H  0.45150222  0.45347498  0.57854637     0.19400
H814        H  0.41265848  0.26042463  0.04447802     0.15500
H815        H  0.43375573  0.28599583  0.97432042     0.18000
H816        H  0.40650594  0.44203182  0.63741174     0.11300
C817        C  0.93878101  0.47635855  0.81723592     0.15200
C818        C  0.92076548  0.49683268  0.78477895    -0.33800
C819        C  0.91459947  0.46002886  0.75497699     0.19600
C820        C  0.92902768  0.40693318  0.75541968     0.01800
C821        C  0.95036455  0.38820415  0.78648793    -0.23600
C822        C  0.95322547  0.42325688  0.81807889     0.11000
S823        S  0.93598858  0.50719586  0.86059856    -0.07200
C824        C  0.95181552  0.44639598  0.88063396    -0.10700
C825        C  0.96241279  0.40685237  0.85434530    -0.27300
S826        S  0.91028518  0.36462578  0.72173769    -0.04500
C827        C  0.88099183  0.41823623  0.70909990    -0.17900
C828        C  0.88787491  0.46689015  0.72796358    -0.15900
H829        H  0.90708782  0.53667820  0.78520427     0.19400
H830        H  0.95933556  0.34559390  0.78838185     0.15500
H831        H  0.97220304  0.36583545  0.86165014     0.18000
H832        H  0.87039311  0.50305163  0.72599891     0.11300
C833        C  0.58260089  0.06909957  0.51142887     0.15200
C834        C  0.57287634  0.04682435  0.54710529    -0.33800
C835        C  0.55524854  0.08197398  0.57298597     0.19600
C836        C  0.54452689  0.13494424  0.56245420     0.01800
C837        C  0.55144507  0.15548063  0.52568899    -0.23600
C838        C  0.57232839  0.12236901  0.50120438     0.11000
S839        S  0.61534868  0.04095849  0.48262751    -0.07200
C840        C  0.61674049  0.10589337  0.95759692    -0.10700
C841        C  0.59128026  0.14140293  0.47003916    -0.27300
S842        S  0.53111597  0.17521366  0.59951325    -0.04500
C843        C  0.54276551  0.12160531  0.63010792    -0.17900
C844        C  0.55298950  0.07343502  0.61169569    -0.15900
H845        H  0.58326045  0.00682502  0.55620623     0.19400
H846        H  0.54548009  0.19813959  0.51849834     0.15500
H847        H  0.58910752  0.18665798  0.96122075     0.18000
H848        H  0.56191609  0.03588364  0.62602975     0.11300
Zr849      Zr  0.60425015  0.80918301  0.32140280     2.17500
O850        O  0.57709515  0.73589966  0.36045083    -0.52100
O851        O  0.57795555  0.74558319  0.27560816    -0.75300
O852        O  0.54411549  0.83249461  0.34917280    -0.82100
O853        O  0.70545504  0.74870538  0.33923543    -0.83800
O854        O  0.52585473  0.91596728  0.32594511    -0.79400
O855        O  0.64451987  0.74473651  0.35334138    -0.91100
O856        O  0.58486346  0.78141969  0.21595756    -0.77000
O857        O  0.58031791  0.86916969  0.27350675    -0.86500
O858        O  0.64631922  0.79955789  0.26925615    -0.86200
O859        O  0.60500781  0.89774225  0.35177486    -0.73000
O860        O  0.66449147  0.83400293  0.34463649    -0.85100
Zr861      Zr  0.68056647  0.98337025  0.27072373     2.26400
Zr862      Zr  0.58183666  0.95818057  0.30255047     2.06300
Zr863      Zr  0.70629563  0.82817006  0.29206773     2.10000
Zr864      Zr  0.62268798  0.86171058  0.22177785     1.78800
O865        O  0.76658571  0.83282709  0.32356961    -0.93900
O866        O  0.56965328  0.88975137  0.18256964    -0.41700
O867        O  0.68070199  0.89132641  0.24599621    -0.78300
O868        O  0.62067182  0.95260223  0.24698562    -0.97000
O869        O  0.64138977  0.98587650  0.32598957    -0.90300
O870        O  0.70751575  0.92049585  0.31769938    -0.93200
C871        C  0.57354670  0.74431279  0.23920167     1.00600
C872        C  0.67787989  0.72781296  0.35805598     1.13500
C873        C  0.52033543  0.87163846  0.34510766     1.04300
O874        O  0.53539924  0.98463799  0.25495199    -0.95300
O875        O  0.59163384  0.55312867  0.28605010    -0.91100
O876        O  0.63559294  0.54942322  0.24059687    -0.84200
C877        C  0.60465992  0.56811915  0.25371740     1.10900
O878        O  0.69418397  0.84045778  0.40147133    -0.97300
Zr879      Zr  0.66678864  0.92260498  0.37209881     1.88900
O880        O  0.69076480  0.55266110  0.32037099    -0.74000
O881        O  0.55086652  0.01090285  0.35238038    -0.53200
O882        O  0.62167931  0.94837574  0.42082509    -0.97900
O883        O  0.69147663  0.93981584  0.43640392    -0.55100
O884        O  0.71243874  0.99531149  0.36869080    -0.74500
C885        C  0.70216000  0.54519268  0.35493623     0.97900
O886        O  0.72012123  0.05244293  0.24078818    -0.63300
O887        O  0.72750900  0.74822549  0.25627469    -0.58100
O888        O  0.72946316  0.95407353  0.22531151    -0.94800
O889        O  0.74427369  0.86407411  0.23817892    -0.93200
O890        O  0.66059029  0.80161531  0.18222105    -0.93600
O891        O  0.63906184  0.90462669  0.16083952    -0.92300
C892        C  0.74814639  0.90953101  0.21876324     1.16700
H893        H  0.64753623  0.76212006  0.26011894     0.32700
H894        H  0.60974891  0.97242528  0.22562025     0.43500
H895        H  0.73288067  0.93016376  0.32337696     0.37000
H896        H  0.58853242  0.89793613  0.37345863     0.33500
H897        H  0.56726859  0.86075533  0.16289454     0.25300
H898        H  0.57122299  0.02832621  0.36699470     0.31200
H899        H  0.61834787  0.91473847  0.43670855     0.37100
H900        H  0.68478995  0.79946458  0.19566706     0.31600
H901        H  0.75160232  0.73826791  0.26822281     0.30500
H902        H  0.76093201  0.84170204  0.35059972     0.32200
H903        H  0.68978126  0.98002715  0.44053305     0.31100
H904        H  0.66244404  0.92438894  0.16619752     0.35100
H905        H  0.70711624  0.08799339  0.24464448     0.27900
H906        H  0.55240476  0.72825450  0.34923254     0.32100
H907        H  0.67651430  0.82934997  0.42176229     0.34900
H908        H  0.71068848  0.71794393  0.26384325     0.27600
H909        H  0.74221875  0.05449974  0.25764199     0.40400
H910        H  0.51747811  0.00748957  0.26929349     0.30500
H911        H  0.54788399  0.88447419  0.19937201     0.38100
H912        H  0.71842149  0.93232359  0.43467519     0.30000
H913        H  0.53843308  0.04183127  0.33871250     0.30000
H914        H  0.57200078  0.75234403  0.38581274     0.30300
C915        C  0.54624078  0.62898455  0.17136882     0.85700
C916        C  0.57799320  0.59573289  0.19036647    -0.54500
C917        C  0.58020910  0.60232461  0.22919655     0.08700
C918        C  0.55065259  0.64184006  0.24536183     0.19600
C919        C  0.51123677  0.61217154  0.19262844    -0.55200
C920        C  0.51297243  0.62011780  0.23117305     0.08800
C921        C  0.55386088  0.68855074  0.18370181    -0.54700
C922        C  0.55686670  0.69503252  0.22241842     0.09300
H923        H  0.59635387  0.56826532  0.17492160     0.13900
H924        H  0.55217498  0.64687985  0.27697383    -0.00400
H925        H  0.48588038  0.60048081  0.17789345     0.14200
H926        H  0.55966657  0.72177355  0.16361471     0.14000
C927        C  0.64990003  0.62028270  0.43327690     0.85700
C928        C  0.64976862  0.67363798  0.41021356    -0.54500
C929        C  0.68119121  0.68418287  0.38911383     0.08700
C930        C  0.71197365  0.63977905  0.39657602     0.19600
C931        C  0.65980457  0.57649800  0.40410986    -0.55200
C932        C  0.69197857  0.58556798  0.38474157     0.08800
C933        C  0.68316557  0.62488251  0.45959811    -0.54700
C934        C  0.71577099  0.63522707  0.44185069     0.09300
H935        H  0.62519950  0.69909580  0.40854803     0.13900
H936        H  0.73827566  0.64751299  0.38109875    -0.00400
H937        H  0.64202912  0.54169102  0.39820968     0.14200
H938        H  0.68097978  0.62068093  0.49060826     0.14000
Zr939      Zr  0.89045255  0.74933752  0.07064595     2.17500
O940        O  0.91507235  0.81814516  0.11455634    -0.52100
O941        O  0.91773836  0.81177648  0.02450406    -0.75300
O942        O  0.95267785  0.72764518  0.09662252    -0.82100
O943        O  0.78891707  0.79104717  0.09250511    -0.83800
O944        O  0.97280764  0.64765048  0.07055623    -0.79400
O945        O  0.84814016  0.82176723  0.09198064    -0.91100
O946        O  0.91232547  0.77561046  0.96508637    -0.77000
O947        O  0.91601611  0.69027975  0.02365254    -0.86500
O948        O  0.84879925  0.75561952  0.01731522    -0.86200
O949        O  0.89143045  0.66040504  0.10168824    -0.73000
O950        O  0.83129155  0.71856963  0.09268264    -0.85100
Zr951      Zr  0.81827381  0.57000375  0.02183769     2.26400
Zr952      Zr  0.91648251  0.60088689  0.05346151     2.06300
Zr953      Zr  0.78974044  0.72291246  0.03955492     2.10000
Zr954      Zr  0.87416732  0.69478260  0.97099643     1.78800
O955        O  0.72656448  0.72161829  0.06383752    -0.93900
O956        O  0.92780781  0.66079704  0.43379700    -0.41700
O957        O  0.81679817  0.66127146  0.99478493    -0.78300
O958        O  0.87742291  0.60400197  0.99765576    -0.97000
O959        O  0.85794648  0.56941874  0.07666122    -0.90300
O960        O  0.79021190  0.63138878  0.06721246    -0.93200
C961        C  0.92301175  0.81297991  0.98827888     1.00600
C962        C  0.81483772  0.82264978  0.10521700     1.13500
C963        C  0.97777716  0.69073361  0.09068143     1.04300
O964        O  0.96458416  0.56849230  0.01021446    -0.95300
O965        O  0.90624829  0.50459422  0.03957984    -0.91100
O966        O  0.86205945  0.50478528  0.99395705    -0.84200
C967        C  0.89352144  0.48842626  0.00746508     1.10900
O968        O  0.83872798  0.68255719  0.18054719    -0.97300
Zr969      Zr  0.83080550  0.63046655  0.12164385     1.88900
O970        O  0.80957293  0.50044329  0.07422659    -0.74000
O971        O  0.94607750  0.55479622  0.10800706    -0.53200
O972        O  0.86733615  0.58188107  0.16989488    -0.97900
O973        O  0.77487763  0.65956063  0.15496599    -0.55100
O974        O  0.79394130  0.54785192  0.12695253    -0.74500
C975        C  0.80062287  0.50259657  0.11000088     0.97900
O976        O  0.77506023  0.50011688  0.49724411    -0.63300
O977        O  0.77336362  0.80632051  0.00384527    -0.58100
O978        O  0.76888683  0.59691399  0.97524602    -0.94800
O979        O  0.75204538  0.68621626  0.98642086    -0.93200
O980        O  0.83658695  0.75253968  0.42868916    -0.93600
O981        O  0.85772375  0.65227257  0.40856989    -0.92300
C982        C  0.74919186  0.64053129  0.96782402     1.16700
H983        H  0.84683201  0.79294630  0.00764597     0.32700
H984        H  0.88872764  0.58432928  0.97682276     0.43500
H985        H  0.76550532  0.61942021  0.07369117     0.37000
H986        H  0.90742009  0.66054149  0.12397893     0.33500
H987        H  0.93514891  0.69246984  0.41748692     0.25300
H988        H  0.92536735  0.53851270  0.12270414     0.31200
H989        H  0.84952488  0.57553398  0.19095977     0.37100
H990        H  0.81115947  0.74925916  0.43900823     0.31600
H991        H  0.74607817  0.80464072  0.00096634     0.30500
H992        H  0.72880244  0.70811069  0.09060212     0.32200
H993        H  0.75455636  0.63731986  0.14398150     0.31100
H994        H  0.84429039  0.61813234  0.41547017     0.35100
H995        H  0.78741976  0.46429613  0.50250518     0.27900
H996        H  0.93834845  0.83154523  0.10284299     0.32100
H997        H  0.85666880  0.71180388  0.17381721     0.34900
H998        H  0.77762407  0.83686468  0.02196737     0.27600
H999        H  0.75383534  0.50087411  0.51514907     0.40400
H1000       H  0.98262580  0.54897789  0.02702720     0.30500
H1001       H  0.94797260  0.65726983  0.45302427     0.38100
H1002       H  0.77002492  0.69748935  0.14549627     0.30000
H1003       H  0.95915696  0.52273893  0.09691189     0.30000
H1004       H  0.92288442  0.79792505  0.13803960     0.30300
C1005       C  0.94974057  0.93104572  0.42107305     0.85700
C1006       C  0.91944066  0.96313149  0.44232412    -0.54500
C1007       C  0.91858112  0.95556140  0.98108516     0.08700
C1008       C  0.94800949  0.91431460  0.99585322     0.19600
C1009       C  0.98587747  0.94537235  0.44124213    -0.55200
C1010       C  0.98550474  0.93621374  0.98116408     0.08800
C1011       C  0.94191904  0.87052789  0.43174682    -0.54700
C1012       C  0.94019462  0.86267701  0.97195105     0.09300
H1013       H  0.90031747  0.49109442  0.42885496     0.13900
H1014       H  0.94732070  0.90740562  0.02738344    -0.00400
H1015       H  0.01044831  0.95889410  0.42595392     0.14200
H1016       H  0.93420097  0.83960107  0.41089548     0.14000
C1017       C  0.84713900  0.91300521  0.18367020     0.85700
C1018       C  0.84151779  0.85899999  0.16291735    -0.54500
C1019       C  0.81010129  0.85633884  0.14078097     0.08700
C1020       C  0.78380772  0.90720986  0.14713581     0.19600
C1021       C  0.84174755  0.95759073  0.15305967    -0.55200
C1022       C  0.80860762  0.95641711  0.13426902     0.08800
C1023       C  0.81406757  0.91712116  0.20998529    -0.54700
C1024       C  0.78069718  0.91299009  0.19238868     0.09300
H1025       H  0.86306601  0.82786997  0.16175991     0.13900
H1026       H  0.75673010  0.90459143  0.13204498    -0.00400
H1027       H  0.86258420  0.48654655  0.14958895     0.14200
H1028       H  0.81693859  0.92074232  0.24095268     0.14000
Zr1029     Zr  0.39418321  0.56230561  0.27571093     2.17500
O1030       O  0.42288256  0.48928006  0.23791044    -0.52100
O1031       O  0.41992748  0.99551520  0.32130185    -0.75300
O1032       O  0.45398845  0.58622332  0.24775515    -0.82100
O1033       O  0.29357695  0.50325140  0.25829876    -0.83800
O1034       O  0.47365330  0.66615540  0.27397913    -0.79400
O1035       O  0.35318682  0.99920529  0.24314799    -0.91100
O1036       O  0.41356822  0.53131648  0.38110596    -0.77000
O1037       O  0.41816272  0.62068946  0.32376190    -0.86500
O1038       O  0.35214206  0.55188474  0.32793971    -0.86200
O1039       O  0.39329448  0.65181890  0.24550892    -0.73000
O1040       O  0.33385513  0.58885644  0.25262076    -0.85100
Zr1041     Zr  0.31858879  0.73641024  0.32777171     2.26400
Zr1042     Zr  0.41705055  0.71038147  0.29466091     2.06300
Zr1043     Zr  0.29219760  0.58202759  0.30537200     2.10000
Zr1044     Zr  0.37584339  0.61230524  0.37555250     1.78800
O1045       O  0.23196803  0.58963890  0.27388408    -0.93900
O1046       O  0.42807055  0.63597539  0.41668396    -0.41700
O1047       O  0.31794945  0.64331918  0.35153834    -0.78300
O1048       O  0.37872848  0.70372553  0.35062565    -0.97000
O1049       O  0.35727081  0.74009836  0.27227910    -0.90300
O1050       O  0.29111410  0.67551003  0.28081986    -0.93200
C1051       C  0.42601950  0.99473444  0.35741095     1.00600
C1052       C  0.31984040  0.98230695  0.23918619     1.13500
C1053       C  0.47851393  0.62345321  0.25329992     1.04300
O1054       O  0.46678324  0.74009508  0.33706507    -0.95300
O1055       O  0.40588849  0.80532027  0.31151730    -0.91100
O1056       O  0.36235559  0.80174945  0.35734222    -0.84200
C1057       C  0.39335815  0.81986375  0.34401609     1.10900
O1058       O  0.30104980  0.59911593  0.19814407    -0.97300
Zr1059     Zr  0.33124601  0.67887905  0.22619840     1.88900
O1060       O  0.30551547  0.80652343  0.27738091    -0.74000
O1061       O  0.44262606  0.76137798  0.24044449    -0.53200
O1062       O  0.37556093  0.70504101  0.17676733    -0.97900
O1063       O  0.30650735  0.69991706  0.16222944    -0.55100
O1064       O  0.28564235  0.75215987  0.23088180    -0.74500
C1065       C  0.29438928  0.79966438  0.24274866     0.97900
O1066       O  0.27591292  0.80454053  0.35395800    -0.63300
O1067       O  0.26994665  0.50125828  0.34009074    -0.58100
O1068       O  0.27051951  0.70553835  0.37369292    -0.94800
O1069       O  0.25437022  0.61679802  0.35976625    -0.93200
O1070       O  0.33789437  0.55200114  0.41517631    -0.93600
O1071       O  0.35705932  0.65715956  0.43464018    -0.92300
C1072       C  0.25119766  0.66152614  0.37973673     1.16700
H1073       H  0.35080860  0.51422922  0.33699120     0.32700
H1074       H  0.39009423  0.72222142  0.37205540     0.43500
H1075       H  0.26567957  0.68567431  0.27548486     0.37000
H1076       H  0.40954254  0.65244124  0.22362623     0.33500
H1077       H  0.43016734  0.60509654  0.43533028     0.25300
H1078       H  0.42161168  0.78352512  0.23025191     0.31200
H1079       H  0.37901201  0.67149493  0.16115825     0.37100
H1080       H  0.31275903  0.55461521  0.40376609     0.31600
H1081       H  0.24506399  0.49434110  0.32907501     0.30500
H1082       H  0.23715607  0.58362028  0.24636984     0.32200
H1083       H  0.30780788  0.74034491  0.15877624     0.31100
H1084       H  0.33316991  0.67534682  0.42823243     0.35100
H1085       H  0.28789592  0.84061807  0.34930519     0.27900
H1086       H  0.44596471  0.98015265  0.24937230     0.32100
H1087       H  0.31633687  0.58958936  0.17559545     0.34900
H1088       H  0.28723873  0.97082469  0.33594310     0.27600
H1089       H  0.25429367  0.80448772  0.33635099     0.40400
H1090       H  0.46133099  0.72240945  0.36207845     0.30500
H1091       H  0.45012999  0.63210552  0.40012052     0.38100
H1092       H  0.27962726  0.69221010  0.16383387     0.30000
H1093       H  0.45945655  0.78871621  0.25212923     0.30000
H1094       H  0.42789220  0.50543142  0.21227622     0.30300
C1095       C  0.45194263  0.87862665  0.42630614     0.85700
C1096       C  0.42021060  0.84609610  0.40732759    -0.54500
C1097       C  0.41835477  0.85272476  0.36839763     0.08700
C1098       C  0.44838780  0.89139081  0.35211918     0.19600
C1099       C  0.48714541  0.86082308  0.40570480    -0.55200
C1100       C  0.48576403  0.86846594  0.36699301     0.08800
C1101       C  0.44485423  0.93821679  0.41311912    -0.54700
C1102       C  0.44245563  0.94486519  0.37439752     0.09300
H1103       H  0.40144651  0.81930622  0.42291130     0.13900
H1104       H  0.44724760  0.89653972  0.32043833    -0.00400
H1105       H  0.51235696  0.84890200  0.42087970     0.14200
H1106       H  0.43876222  0.97156251  0.43268997     0.14000
C1107       C  0.34602883  0.87498017  0.16388690     0.85700
C1108       C  0.34732874  0.92795781  0.18680989    -0.54500
C1109       C  0.31616470  0.93923369  0.20834731     0.08700
C1110       C  0.28477426  0.89608008  0.20149346     0.19600
C1111       C  0.33609402  0.83115272  0.19330301    -0.55200
C1112       C  0.30432972  0.84083981  0.21305189     0.08800
C1113       C  0.31252241  0.88158090  0.13816159    -0.54700
C1114       C  0.28039404  0.89277753  0.15632787     0.09300
H1115       H  0.37228012  0.95241414  0.18796698     0.13900
H1116       H  0.25874740  0.90437335  0.21732070    -0.00400
H1117       H  0.35362385  0.79567984  0.19907991     0.14200
H1118       H  0.31412342  0.87749925  0.10712822     0.14000
Zr1119     Zr  0.10510696  0.49637809  0.52403801     2.17500
O1120       O  0.07726658  0.56571581  0.48153157    -0.52100
O1121       O  0.07669196  0.56190102  0.06714857    -0.75300
O1122       O  0.04456876  0.47163641  0.49789560    -0.82100
O1123       O  0.20537737  0.55739325  0.50828334    -0.83800
O1124       O  0.02561637  0.89208546  0.02468463    -0.79400
O1125       O  0.14473528  0.56096742  0.49175997    -0.91100
O1126       O  0.08175261  0.52628239  0.12719785    -0.77000
O1127       O  0.08024054  0.93657775  0.07296396    -0.86500
O1128       O  0.14498095  0.50705791  0.07717163    -0.86200
O1129       O  0.10709779  0.90706551  0.49284557    -0.73000
O1130       O  0.16555344  0.97233524  0.50145043    -0.85100
Zr1131     Zr  0.18148320  0.82301613  0.07691302     2.26400
Zr1132     Zr  0.08298456  0.84799935  0.04330798     2.06300
Zr1133     Zr  0.20555602  0.97942787  0.05737418     2.10000
Zr1134     Zr  0.12164246  0.94369663  0.12577895     1.78800
O1135       O  0.26668243  0.97271597  0.52612744    -0.93900
O1136       O  0.06786465  0.91239798  0.16173130    -0.41700
O1137       O  0.18009422  0.91498199  0.10215131    -0.78300
O1138       O  0.12105113  0.85295964  0.09987156    -0.97000
O1139       O  0.14302888  0.82117780  0.02103053    -0.90300
O1140       O  0.20844044  0.88720462  0.03149980    -0.93200
C1141       C  0.07119260  0.56365784  0.10334377     1.00600
C1142       C  0.17805049  0.57839658  0.48853609     1.13500
C1143       C  0.02069597  0.93294675  0.50117333     1.04300
O1144       O  0.03454602  0.81289184  0.08515243    -0.95300
O1145       O  0.09645290  0.75223409  0.05607845    -0.91100
O1146       O  0.13836642  0.75428171  0.10360792    -0.84200
C1147       C  0.10788923  0.73635860  0.08889228     1.10900
O1148       O  0.13053815  0.87142010  0.41909643    -0.97300
Zr1149     Zr  0.17000999  0.88302805  0.47539883     1.88900
O1150       O  0.19537859  0.75488325  0.02611043    -0.74000
O1151       O  0.05928589  0.79916769  0.48531313    -0.53200
O1152       O  0.19339442  0.85242566  0.41350014    -0.97900
O1153       O  0.20543719  0.96237733  0.45357979    -0.55100
O1154       O  0.21560275  0.80973774  0.48049234    -0.74500
C1155       C  0.20677259  0.76168371  0.49160655     0.97900
O1156       O  0.22350538  0.75454478  0.10490206    -0.63300
O1157       O  0.22001842  0.55912381  0.09546610    -0.58100
O1158       O  0.22964078  0.85331805  0.12280532    -0.94800
O1159       O  0.24318475  0.94418142  0.11211974    -0.93200
O1160       O  0.15270018  0.50831594  0.16805650    -0.93600
O1161       O  0.13994710  0.89824485  0.18551987    -0.92300
C1162       C  0.24752849  0.89797726  0.13055799     1.16700
H1163       H  0.14553196  0.54469971  0.08596428     0.32700
H1164       H  0.11016432  0.83238426  0.12078365     0.43500
H1165       H  0.23397231  0.87795361  0.02621766     0.37000
H1166       H  0.09129423  0.90598073  0.47048480     0.33500
H1167       H  0.06564929  0.93854039  0.18326578     0.25300
H1168       H  0.08053033  0.77721728  0.47586987     0.31200
H1169       H  0.21951529  0.86470217  0.41259390     0.37100
H1170       H  0.17679762  0.51578200  0.15562744     0.31600
H1171       H  0.24706823  0.56415814  0.09248365     0.30500
H1172       H  0.27835290  0.00870085  0.53147116     0.32200
H1173       H  0.20032704  0.96537435  0.42571316     0.31100
H1174       H  0.16376720  0.87983466  0.17956734     0.35100
H1175       H  0.21282616  0.71844495  0.09788652     0.27900
H1176       H  0.05242613  0.57420012  0.49197933     0.32100
H1177       H  0.12761176  0.90906285  0.40823183     0.34900
H1178       H  0.20880492  0.59094851  0.08168412     0.27600
H1179       H  0.24642876  0.75721636  0.08949309     0.40400
H1180       H  0.01463508  0.80081878  0.06752428     0.30500
H1181       H  0.04637470  0.92100942  0.14493023     0.38100
H1182       H  0.23165037  0.95036149  0.45537277     0.30000
H1183       H  0.04189327  0.77148583  0.49578759     0.30000
H1184       H  0.07169273  0.05176882  0.45764496     0.30300
C1185       C  0.04795625  0.68104400  0.17079263     0.85700
C1186       C  0.08058468  0.71065802  0.15149753    -0.54500
C1187       C  0.08178785  0.70442820  0.11272724     0.08700
C1188       C  0.05012921  0.66829638  0.09670915     0.19600
C1189       C  0.01320913  0.70207282  0.15016387    -0.55200
C1190       C  0.01346754  0.69409068  0.11152006     0.08800
C1191       C  0.05248203  0.62089698  0.15815699    -0.54700
C1192       C  0.05463674  0.61406722  0.11944871     0.08500
H1193       H  0.10056609  0.73555801  0.16687982     0.13900
H1194       H  0.05085365  0.66339928  0.06506383    -0.00400
H1195       H  0.98869248  0.71566665  0.16549179     0.14200
H1196       H  0.05766623  0.58720832  0.17814255     0.14000
C1197       C  0.15331983  0.68927433  0.41290776     0.85700
C1198       C  0.15050422  0.63766937  0.43774322    -0.54500
C1199       C  0.18173550  0.62394308  0.45879550     0.08700
C1200       C  0.21432145  0.66489671  0.45083804     0.19600
C1201       C  0.16532693  0.73378853  0.44059286    -0.55200
C1202       C  0.19663276  0.72195101  0.46113303     0.08800
C1203       C  0.18617567  0.67888868  0.38719081    -0.54700
C1204       C  0.21832560  0.66651552  0.40548708     0.09300
H1205       H  0.12471800  0.61544554  0.43987944     0.13900
H1206       H  0.24023265  0.65524045  0.46684414    -0.00400
H1207       H  0.14912868  0.77099751  0.44503080     0.14200
H1208       H  0.18427272  0.68240624  0.35608771     0.14000
C1209       C  0.05021062  0.67288156  0.28121031     0.15200
C1210       C  0.05685971  0.65208796  0.31808101    -0.33800
C1211       C  0.07751485  0.68484161  0.34305077     0.19600
C1212       C  0.08871630  0.73744939  0.33271561     0.01800
C1213       C  0.08002961  0.75956493  0.29661801    -0.23600
C1214       C  0.06167869  0.72530951  0.27074050     0.11000
S1215       S  0.03476305  0.63407002  0.24421086    -0.07200
C1216       C  0.04614240  0.68775016  0.21372188    -0.10700
C1217       C  0.05822270  0.73475384  0.23223497    -0.27300
S1218       S  0.12014783  0.76564380  0.36306433    -0.04500
C1219       C  0.11979758  0.70488011  0.38915089    -0.17900
C1220       C  0.09461201  0.66637615  0.37574263    -0.15900
H1221       H  0.04996939  0.60991337  0.32545566     0.19400
H1222       H  0.09084731  0.79916038  0.28762103     0.15500
H1223       H  0.06729912  0.77212048  0.21800827     0.18000
H1224       H  0.09254234  0.62420676  0.38573007     0.11300
C1225       C  0.45200916  0.89027150  0.53616057     0.15200
C1226       C  0.44383798  0.90888644  0.06951747    -0.33800
C1227       C  0.42237635  0.87770468  0.09485639     0.19600
C1228       C  0.41129679  0.82465698  0.08598001     0.01800
C1229       C  0.42369700  0.80319972  0.55399567    -0.23600
C1230       C  0.44176359  0.83679207  0.52737384     0.11000
S1231       S  0.46656637  0.92799730  0.49806822    -0.07200
C1232       C  0.45527991  0.87291460  0.46925422    -0.10700
C1233       C  0.44474139  0.82601881  0.48915470    -0.27300
S1234       S  0.37939460  0.79796842  0.11625190    -0.04500
C1235       C  0.37937212  0.85978950  0.14034526    -0.17900
C1236       C  0.40461977  0.89784673  0.12637010    -0.15900
H1237       H  0.45077730  0.95132015  0.07562388     0.19400
H1238       H  0.41390355  0.76263445  0.54623625     0.15500
H1239       H  0.43588238  0.78796258  0.47605123     0.18000
H1240       H  0.40655505  0.94035420  0.13520354     0.11300
C1241       C  0.93925677  0.97376373  0.31537381     0.15200
C1242       C  0.92230704  0.99536863  0.28258557    -0.33800
C1243       C  0.91624490  0.95918146  0.25230909     0.19600
C1244       C  0.92946613  0.90540930  0.25300978     0.01800
C1245       C  0.94987218  0.88558873  0.28435388    -0.23600
C1246       C  0.95284847  0.92018979  0.31610918     0.11000
S1247       S  0.93661733  0.00416639  0.35896603    -0.07200
C1248       C  0.95158435  0.94269324  0.37875726    -0.10700
C1249       C  0.96158441  0.90308358  0.35229539    -0.27300
S1250       S  0.91025286  0.86383114  0.21925680    -0.04500
C1251       C  0.88283178  0.91890902  0.20548762    -0.17900
C1252       C  0.89042813  0.96735747  0.22445997    -0.15900
H1253       H  0.90942435  0.03579315  0.28290142     0.19400
H1254       H  0.95801623  0.84261668  0.28622311     0.15500
H1255       H  0.97105847  0.86181123  0.35930154     0.18000
H1256       H  0.87368654  0.00420190  0.22226589     0.11300
C1257       C  0.58135493  0.57209768  0.00967218     0.15200
C1258       C  0.57090994  0.54897562  0.04483660    -0.33800
C1259       C  0.55353627  0.58379355  0.07106219     0.19600
C1260       C  0.54347220  0.63732914  0.06121884     0.01800
C1261       C  0.55133344  0.65897921  0.02496088    -0.23600
C1262       C  0.57212277  0.62605355  0.00025468     0.11000
S1263       S  0.61366404  0.54353528  0.98057563    -0.07200
C1264       C  0.61520151  0.60779544  0.45579382    -0.10700
C1265       C  0.59159232  0.64526220  0.96947764    -0.27300
S1266       S  0.53027583  0.67675410  0.09876808    -0.04500
C1267       C  0.54210052  0.62234558  0.12862756    -0.17900
C1268       C  0.55147788  0.57436379  0.10965784    -0.15900
H1269       H  0.58064909  0.50839645  0.05341870     0.19400
H1270       H  0.54611378  0.70205622  0.01841959     0.15500
H1271       H  0.59250298  0.69162827  0.46113390     0.18000
H1272       H  0.56029548  0.53640868  0.12353007     0.11300
Zr1273     Zr  0.60487600  0.81190954  0.82207800     2.17500
O1274       O  0.57696700  0.73664928  0.85872282    -0.52100
O1275       O  0.58050242  0.74704222  0.77649231    -0.75300
O1276       O  0.54366208  0.83426960  0.84791100    -0.82100
O1277       O  0.70517986  0.75039377  0.83987120    -0.83800
O1278       O  0.52475845  0.91668968  0.82348816    -0.79400
O1279       O  0.64471851  0.74901534  0.85639657    -0.91100
O1280       O  0.58360809  0.78588255  0.71737829    -0.77000
O1281       O  0.58091489  0.87174092  0.77389939    -0.86500
O1282       O  0.64699152  0.80248373  0.76983879    -0.86200
O1283       O  0.60484359  0.90029499  0.85252512    -0.73000
O1284       O  0.66498219  0.83693513  0.84551970    -0.85100
Zr1285     Zr  0.68032766  0.98627095  0.77027639     2.26400
Zr1286     Zr  0.58158627  0.96056320  0.80324508     2.06300
Zr1287     Zr  0.70673622  0.83087864  0.79301623     2.10000
Zr1288     Zr  0.62337880  0.86443876  0.72218696     1.78800
O1289       O  0.76753916  0.83638421  0.82338665    -0.93900
O1290       O  0.57368803  0.89482782  0.67929474    -0.41700
O1291       O  0.68104668  0.89370701  0.74683699    -0.78300
O1292       O  0.62016060  0.95523280  0.74726389    -0.97000
O1293       O  0.64137335  0.98874114  0.82564155    -0.90300
O1294       O  0.70743789  0.92386597  0.81764666    -0.93200
C1295       C  0.57423675  0.74721519  0.74043101     1.00600
C1296       C  0.67789103  0.73052848  0.85980302     1.13500
C1297       C  0.51927915  0.87240996  0.84277884     1.04300
O1298       O  0.53145591  0.99272993  0.76163619    -0.95300
O1299       O  0.59374586  0.55663420  0.78686640    -0.91100
O1300       O  0.63668580  0.55250270  0.74058448    -0.84200
C1301       C  0.60600589  0.57134973  0.75417654     1.10900
O1302       O  0.69563408  0.84498025  0.90137645    -0.97300
Zr1303     Zr  0.66684195  0.92611223  0.87207941     1.88900
O1304       O  0.69253003  0.55359296  0.82034474    -0.74000
O1305       O  0.55679868  0.01172461  0.85733690    -0.53200
O1306       O  0.62133432  0.95214671  0.92026583    -0.97900
O1307       O  0.69270196  0.94351215  0.93578034    -0.55100
O1308       O  0.71198672  0.99945942  0.86824633    -0.74500
C1309       C  0.70325392  0.54557655  0.85508908     0.97900
O1310       O  0.71984204  0.05433463  0.73899367    -0.63300
O1311       O  0.72783679  0.75154916  0.75652792    -0.58100
O1312       O  0.72936673  0.95597926  0.72495680    -0.94800
O1313       O  0.74457086  0.86647913  0.73905264    -0.93200
O1314       O  0.65997740  0.80311580  0.68231897    -0.93600
O1315       O  0.64590493  0.90723472  0.66334130    -0.92300
C1316       C  0.74831128  0.91140682  0.71907115     1.16700
H1317       H  0.64842691  0.76510063  0.76063491     0.32700
H1318       H  0.60892567  0.97470084  0.72586698     0.43500
H1319       H  0.73276538  0.93371244  0.82335678     0.37000
H1320       H  0.58818392  0.89991911  0.87407758     0.33500
H1321       H  0.57193103  0.86563878  0.65969126     0.25300
H1322       H  0.57832487  0.03173894  0.86798593     0.31200
H1323       H  0.61824862  0.91879885  0.93649102     0.37100
H1324       H  0.68570069  0.80717534  0.69188302     0.31600
H1325       H  0.75351328  0.74486925  0.76564289     0.30500
H1326       H  0.76240208  0.83526651  0.85125231     0.32200
H1327       H  0.68937397  0.98335552  0.94055001     0.31100
H1328       H  0.66416732  0.93486213  0.67202523     0.35100
H1329       H  0.70940075  0.05877701  0.71280297     0.27900
H1330       H  0.55309547  0.72833994  0.84593381     0.32100
H1331       H  0.67756179  0.83191408  0.92070277     0.34900
H1332       H  0.71356373  0.71991059  0.76665965     0.27600
H1333       H  0.71401728  0.08966225  0.75166548     0.40400
H1334       H  0.53619173  0.97501966  0.73665373     0.30500
H1335       H  0.55078610  0.89088940  0.69457870     0.38100
H1336       H  0.71983663  0.93871761  0.93302425     0.30000
H1337       H  0.54105667  0.04086937  0.84556066     0.30000
H1338       H  0.57009489  0.75219966  0.88390009     0.30300
C1339       C  0.54711894  0.63267011  0.67222638     0.85700
C1340       C  0.57874376  0.59904007  0.69103753    -0.54500
C1341       C  0.58095542  0.60511973  0.72993145     0.08700
C1342       C  0.55127301  0.64439497  0.74637057     0.19600
C1343       C  0.51195166  0.61558130  0.69330084    -0.55200
C1344       C  0.51346904  0.62281963  0.73198344     0.08800
C1345       C  0.55473647  0.69192266  0.68505741    -0.54700
C1346       C  0.55760430  0.69791978  0.72371558     0.09300
H1347       H  0.59708374  0.57184951  0.67531593     0.13900
H1348       H  0.55278920  0.64909703  0.77801124    -0.00400
H1349       H  0.48665493  0.60418569  0.67836563     0.14200
H1350       H  0.56082379  0.72544882  0.66533190     0.14000
C1351       C  0.65064146  0.61952081  0.93356523     0.85700
C1352       C  0.64987317  0.67318613  0.91073533    -0.54500
C1353       C  0.68124614  0.68499617  0.88980273     0.08700
C1354       C  0.71238496  0.64063954  0.89668814     0.19600
C1355       C  0.66080890  0.57629538  0.90416355    -0.55200
C1356       C  0.69280910  0.58607960  0.88471638     0.08800
C1357       C  0.68399678  0.62430731  0.95970199    -0.54700
C1358       C  0.71644136  0.63516109  0.94185687     0.09300
H1359       H  0.62496526  0.69799856  0.90918524     0.13900
H1360       H  0.73858228  0.64895678  0.88116899    -0.00400
H1361       H  0.64341762  0.54114634  0.89827480     0.14200
H1362       H  0.68203009  0.61953451  0.99069785     0.14000
Zr1363     Zr  0.89211759  0.74638448  0.56900502     2.17500
O1364       O  0.91745766  0.82127644  0.60731184    -0.52100
O1365       O  0.91861082  0.80935534  0.52274065    -0.75300
O1366       O  0.95301081  0.72414835  0.59697469    -0.82100
O1367       O  0.78804241  0.79604233  0.58965040    -0.83800
O1368       O  0.97291028  0.64355722  0.57161673    -0.79400
O1369       O  0.84934932  0.80744239  0.60075157    -0.91100
O1370       O  0.91273465  0.77354893  0.46329688    -0.77000
O1371       O  0.91672178  0.68723370  0.52196915    -0.86500
O1372       O  0.84974069  0.75447166  0.51637737    -0.86200
O1373       O  0.89252771  0.65770322  0.60031931    -0.73000
O1374       O  0.83268582  0.71784264  0.59108979    -0.85100
Zr1375     Zr  0.81776660  0.56935058  0.52149874     2.26400
Zr1376     Zr  0.91665731  0.59820750  0.55192061     2.06300
Zr1377     Zr  0.79016081  0.72324550  0.53896431     2.10000
Zr1378     Zr  0.87428318  0.69296088  0.46989157     1.78800
O1379       O  0.72816825  0.71579794  0.56582957    -0.93900
O1380       O  0.92648848  0.66379139  0.93263535    -0.41700
O1381       O  0.81676000  0.66063094  0.49430039    -0.78300
O1382       O  0.87681474  0.60211494  0.49657857    -0.97000
O1383       O  0.85795770  0.56867994  0.57598713    -0.90300
O1384       O  0.79035349  0.63161445  0.56686793    -0.93200
C1385       C  0.92371007  0.81073372  0.48649952     1.00600
C1386       C  0.81524428  0.81902967  0.60771642     1.13500
C1387       C  0.97789905  0.68692863  0.59150524     1.04300
O1388       O  0.96363894  0.56966946  0.50620371    -0.95300
O1389       O  0.90500080  0.50216513  0.53919092    -0.91100
O1390       O  0.86113668  0.50298158  0.49336326    -0.84200
C1391       C  0.89251457  0.48619804  0.50695721     1.10900
O1392       O  0.84623995  0.67994570  0.67951183    -0.97300
Zr1393     Zr  0.83137933  0.63050170  0.62085560     1.88900
O1394       O  0.80897747  0.50021996  0.57405716    -0.74000
O1395       O  0.94759208  0.54977010  0.60463040    -0.53200
O1396       O  0.86035912  0.58124796  0.67395668    -0.97900
O1397       O  0.77519109  0.66762248  0.64972382    -0.55100
O1398       O  0.79454748  0.54794436  0.62704227    -0.74500
C1399       C  0.80064402  0.50256696  0.60996492     0.97900
O1400       O  0.77592357  0.50017013  0.99776222    -0.63300
O1401       O  0.77251106  0.80553351  0.50251879    -0.58100
O1402       O  0.76776139  0.59699540  0.47584810    -0.94800
O1403       O  0.75210101  0.68715213  0.48568873    -0.93200
O1404       O  0.83822706  0.75652245  0.92970420    -0.93600
O1405       O  0.85548514  0.65343133  0.91055574    -0.92300
C1406       C  0.74856072  0.64087876  0.46784797     1.16700
H1407       H  0.84809132  0.79184198  0.50673914     0.32700
H1408       H  0.88757258  0.58216779  0.47555904     0.43500
H1409       H  0.76567610  0.61991723  0.57367626     0.37000
H1410       H  0.90847757  0.65720894  0.62262999     0.33500
H1411       H  0.93230218  0.69530304  0.91550104     0.25300
H1412       H  0.92809856  0.52648370  0.61624501     0.31200
H1413       H  0.83913876  0.56990572  0.69007454     0.37100
H1414       H  0.81442127  0.76166133  0.94324671     0.31600
H1415       H  0.74520359  0.80773073  0.50478990     0.30500
H1416       H  0.71283382  0.74178091  0.55045304     0.32200
H1417       H  0.75589352  0.63947468  0.64534030     0.31100
H1418       H  0.84800514  0.61544993  0.91753221     0.35100
H1419       H  0.79013584  0.46517604  0.99902552     0.27900
H1420       H  0.94180557  0.83020485  0.59588167     0.32100
H1421       H  0.84055308  0.71906438  0.67358399     0.34900
H1422       H  0.78175572  0.83686006  0.51779872     0.27600
H1423       H  0.75683692  0.49627048  0.01791154     0.40400
H1424       H  0.98264966  0.55040374  0.52195833     0.30500
H1425       H  0.94759669  0.66182165  0.95084367     0.38100
H1426       H  0.76783469  0.69899304  0.63299664     0.30000
H1427       H  0.96458394  0.52335883  0.59210886     0.30000
H1428       H  0.92339662  0.80488756  0.63272233     0.30300
C1429       C  0.95034930  0.93177993  0.92209451     0.85700
C1430       C  0.91992902  0.96481034  0.94250618    -0.54500
C1431       C  0.91881304  0.95316319  0.48083505     0.08700
C1432       C  0.94865070  0.91191389  0.49464055     0.19600
C1433       C  0.98628841  0.94601480  0.94273184    -0.55200
C1434       C  0.98574830  0.93465395  0.47954449     0.08800
C1435       C  0.94195495  0.87168380  0.93331452    -0.54700
C1436       C  0.94076744  0.86065718  0.47032089     0.09300
H1437       H  0.90154022  0.49790940  0.93030895     0.13900
H1438       H  0.94852701  0.90437088  0.52611509    -0.00400
H1439       H  0.01121094  0.95868540  0.92770531     0.14200
H1440       H  0.93435427  0.84036876  0.91271134     0.14000
C1441       C  0.84771023  0.91270287  0.68510996     0.85700
C1442       C  0.84182442  0.85832613  0.66511091    -0.54500
C1443       C  0.81066012  0.85542407  0.64230696     0.08700
C1444       C  0.78463621  0.90679611  0.64782887     0.19600
C1445       C  0.84295423  0.95642651  0.65388874    -0.55200
C1446       C  0.80996340  0.95516882  0.63477315     0.08800
C1447       C  0.81436646  0.91807846  0.71092183    -0.54700
C1448       C  0.78111164  0.91408771  0.69296134     0.09300
H1449       H  0.86334186  0.82695563  0.66511234     0.13900
H1450       H  0.75772481  0.90436386  0.63240771    -0.00400
H1451       H  0.86253252  0.48610848  0.64952176     0.14200
H1452       H  0.81694343  0.92233940  0.74186683     0.14000
Zr1453     Zr  0.39372797  0.56330563  0.77571637     2.17500
O1454       O  0.42171705  0.49147102  0.73638538    -0.52100
O1455       O  0.41722064  0.99592159  0.82024567    -0.75300
O1456       O  0.45454558  0.58732868  0.74900798    -0.82100
O1457       O  0.29201143  0.50363280  0.75920473    -0.83800
O1458       O  0.47306859  0.66860583  0.77412749    -0.79400
O1459       O  0.35117193  0.00055309  0.74242030    -0.91100
O1460       O  0.41140952  0.53075682  0.88103515    -0.77000
O1461       O  0.41736959  0.62171748  0.82384887    -0.86500
O1462       O  0.35193321  0.55263447  0.82831730    -0.86200
O1463       O  0.39276567  0.65244799  0.74550925    -0.73000
O1464       O  0.33303980  0.58921170  0.75359731    -0.85100
Zr1465     Zr  0.31686486  0.73619061  0.82737661     2.26400
Zr1466     Zr  0.41583222  0.71136458  0.79490504     2.06300
Zr1467     Zr  0.29152203  0.58183107  0.80648318     2.10000
Zr1468     Zr  0.37540003  0.61341962  0.87588810     1.78800
O1469       O  0.23013788  0.58363200  0.77715586    -0.93900
O1470       O  0.43074718  0.63732307  0.91232054    -0.41700
O1471       O  0.31700309  0.64372440  0.85233962    -0.78300
O1472       O  0.37710088  0.70485882  0.85072510    -0.97000
O1473       O  0.35585372  0.73974663  0.77216454    -0.90300
O1474       O  0.29003873  0.67457906  0.78055172    -0.93200
C1475       C  0.42445563  0.99508327  0.85618411     1.00600
C1476       C  0.31779451  0.98379504  0.73857090     1.13500
C1477       C  0.47867363  0.62545110  0.75408944     1.04300
O1478       O  0.46389531  0.74096649  0.83936182    -0.95300
O1479       O  0.40264052  0.80641789  0.80902390    -0.91100
O1480       O  0.36003553  0.80328409  0.85556898    -0.84200
C1481       C  0.39080031  0.82125060  0.84165273     1.10900
O1482       O  0.30413779  0.59718770  0.69566335    -0.97300
Zr1483     Zr  0.33050825  0.67832260  0.72600888     1.88900
O1484       O  0.30310158  0.80614717  0.77716205    -0.74000
O1485       O  0.44192353  0.76710774  0.74329742    -0.53200
O1486       O  0.37642730  0.70763360  0.67905273    -0.97900
O1487       O  0.30457806  0.69623129  0.66211504    -0.55100
O1488       O  0.28478585  0.75174553  0.72986105    -0.74500
C1489       C  0.29285738  0.79933573  0.74223589     0.97900
O1490       O  0.27329847  0.80165171  0.85512392    -0.63300
O1491       O  0.27414552  0.50154394  0.84475513    -0.58100
O1492       O  0.26927907  0.70658946  0.87387941    -0.94800
O1493       O  0.25260748  0.61835554  0.85949635    -0.93200
O1494       O  0.33815160  0.55526880  0.91788384    -0.93600
O1495       O  0.36087654  0.65836483  0.93627724    -0.92300
C1496       C  0.24960788  0.66295469  0.87960171     1.16700
H1497       H  0.35073620  0.51496874  0.83738125     0.32700
H1498       H  0.38789671  0.72420143  0.87210934     0.43500
H1499       H  0.26461447  0.68446211  0.77488205     0.37000
H1500       H  0.40929654  0.65250778  0.72386232     0.33500
H1501       H  0.43159959  0.61051117  0.93387555     0.25300
H1502       H  0.46769635  0.77474837  0.75149406     0.31200
H1503       H  0.37863692  0.67643204  0.66105721     0.37100
H1504       H  0.31214744  0.56561071  0.91198619     0.31600
H1505       H  0.24680063  0.49992372  0.84252996     0.30500
H1506       H  0.23439046  0.59608863  0.75042745     0.32200
H1507       H  0.30864409  0.73582693  0.65668499     0.31100
H1508       H  0.33452249  0.66946323  0.93378367     0.35100
H1509       H  0.28392156  0.83842967  0.84965550     0.27900
H1510       H  0.44407727  0.98244906  0.74667441     0.32100
H1511       H  0.32321931  0.58481233  0.67723714     0.34900
H1512       H  0.28410826  0.96897903  0.83036875     0.27600
H1513       H  0.25095246  0.79986172  0.83858089     0.40400
H1514       H  0.45721637  0.72411628  0.86431324     0.30500
H1515       H  0.45173029  0.62657392  0.89572841     0.38100
H1516       H  0.27738674  0.69297689  0.66509028     0.30000
H1517       H  0.44446390  0.74188060  0.72128495     0.30000
H1518       H  0.42715642  0.50889839  0.71125230     0.30300
C1519       C  0.45054320  0.87691745  0.92369805     0.85700
C1520       C  0.41858220  0.84539427  0.90456125    -0.54500
C1521       C  0.41649478  0.85309154  0.86579675     0.08700
C1522       C  0.44670592  0.89176339  0.84967863     0.19600
C1523       C  0.48550061  0.85921331  0.90267257    -0.55200
C1524       C  0.48421406  0.86822413  0.86409208     0.08800
C1525       C  0.44365384  0.93703302  0.91130141    -0.54700
C1526       C  0.44098720  0.94473912  0.87263360     0.09300
H1527       H  0.39964474  0.81860593  0.91991399     0.13900
H1528       H  0.44534556  0.89761245  0.81806474    -0.00400
H1529       H  0.51065249  0.84651009  0.91764895     0.14200
H1530       H  0.43779352  0.96986035  0.93136716     0.14000
C1531       C  0.34446270  0.87616012  0.66398351     0.85700
C1532       C  0.34528282  0.92915446  0.68670845    -0.54500
C1533       C  0.31411197  0.94016728  0.70814506     0.08700
C1534       C  0.28302949  0.89638033  0.70148401     0.19600
C1535       C  0.33475949  0.83214356  0.69336579    -0.55200
C1536       C  0.30287097  0.84128723  0.71303148     0.08800
C1537       C  0.31101646  0.88201267  0.63817976    -0.54700
C1538       C  0.27878583  0.89280799  0.65634102     0.09300
H1539       H  0.37001856  0.95404338  0.68773255     0.13900
H1540       H  0.25692991  0.90438382  0.71725617    -0.00400
H1541       H  0.35245281  0.79689084  0.69910906     0.14200
H1542       H  0.31273168  0.87782463  0.60716352     0.14000
Zr1543     Zr  0.10441045  0.49617988  0.02359405     2.17500
O1544       O  0.07614712  0.56674703  0.98243854    -0.52100
O1545       O  0.07875337  0.56224463  0.56839873    -0.75300
O1546       O  0.04447164  0.47009357  0.99660286    -0.82100
O1547       O  0.20461475  0.55845767  0.00870678    -0.83800
O1548       O  0.02598037  0.89147121  0.52329028    -0.79400
O1549       O  0.14405441  0.56160270  0.99198936    -0.91100
O1550       O  0.08237014  0.52479065  0.62800997    -0.77000
O1551       O  0.08020705  0.93609715  0.57003212    -0.86500
O1552       O  0.14603962  0.50651362  0.57742511    -0.86200
O1553       O  0.10615807  0.90919945  0.99510182    -0.73000
O1554       O  0.16463574  0.97383512  0.00363696    -0.85100
Zr1555     Zr  0.18103625  0.82200199  0.57651772     2.26400
Zr1556     Zr  0.08324321  0.84688608  0.54137409     2.06300
Zr1557     Zr  0.20576591  0.97813944  0.55578702     2.10000
Zr1558     Zr  0.12098184  0.94407907  0.62322547     1.78800
O1559       O  0.26638154  0.97538212  0.02745511    -0.93900
O1560       O  0.06576876  0.91623977  0.65825175    -0.41700
O1561       O  0.17941808  0.91448250  0.60048444    -0.78300
O1562       O  0.12051572  0.85282351  0.59836814    -0.97000
O1563       O  0.14343489  0.81946252  0.52002568    -0.90300
O1564       O  0.20897909  0.88529835  0.53106561    -0.93200
C1565       C  0.07261745  0.56302744  0.60453182     1.00600
C1566       C  0.17730077  0.57941755  0.98891219     1.13500
C1567       C  0.02021099  0.93432740  0.00329093     1.04300
O1568       O  0.03434378  0.81244556  0.58294087    -0.95300
O1569       O  0.09509716  0.75135180  0.55650699    -0.91100
O1570       O  0.13750766  0.75433690  0.60364589    -0.84200
C1571       C  0.10690795  0.73624229  0.58938001     1.10900
O1572       O  0.12653321  0.86879372  0.92287690    -0.97300
Zr1573     Zr  0.16872046  0.88523989  0.97637526     1.88900
O1574       O  0.19576051  0.75332534  0.52615682    -0.74000
O1575       O  0.05759221  0.80080027  0.98772625    -0.53200
O1576       O  0.19158121  0.85859480  0.91337007    -0.97900
O1577       O  0.20205719  0.96533510  0.95226162    -0.55100
O1578       O  0.21437628  0.81176549  0.98037201    -0.74500
C1579       C  0.20583866  0.76354504  0.99145283     0.97900
O1580       O  0.22174013  0.75456006  0.60764717    -0.63300
O1581       O  0.22229858  0.55793830  0.59515490    -0.58100
O1582       O  0.22787338  0.85307654  0.62346092    -0.94800
O1583       O  0.24245649  0.94314859  0.61110360    -0.93200
O1584       O  0.15491014  0.50733430  0.66717144    -0.93600
O1585       O  0.13736991  0.90252928  0.68482351    -0.92300
C1586       C  0.24607874  0.89765074  0.63050839     1.16700
H1587       H  0.14678154  0.54402064  0.58645884     0.32700
H1588       H  0.10926140  0.83294355  0.61939778     0.43500
H1589       H  0.23458020  0.87582883  0.52630807     0.37000
H1590       H  0.08996544  0.90870998  0.97305191     0.33500
H1591       H  0.06294051  0.94404274  0.67867971     0.25300
H1592       H  0.07918786  0.78229262  0.97592213     0.31200
H1593       H  0.21885656  0.86268230  0.91462231     0.37100
H1594       H  0.18140174  0.50216892  0.66076512     0.31600
H1595       H  0.24855721  0.56558521  0.58905790     0.30500
H1596       H  0.28418964  0.97394995  0.04912509     0.32200
H1597       H  0.19266089  0.97119168  0.92580259     0.31100
H1598       H  0.15992919  0.88051125  0.67956028     0.35100
H1599       H  0.20951504  0.71856286  0.60373386     0.27900
H1600       H  0.05106537  0.57380489  0.99277943     0.32100
H1601       H  0.12252798  0.90553437  0.91091598     0.34900
H1602       H  0.20840732  0.58922496  0.58358026     0.27600
H1603       H  0.24406357  0.75303741  0.59127384     0.40400
H1604       H  0.01579771  0.79650027  0.56525342     0.30500
H1605       H  0.04490465  0.92378123  0.64038762     0.38100
H1606       H  0.22794983  0.95255733  0.94906429     0.30000
H1607       H  0.04265732  0.77035681  0.99858793     0.30000
H1608       H  0.06941171  0.05601235  0.96284216     0.30300
C1609       C  0.04785925  0.68038713  0.67195923     0.85700
C1610       C  0.07982061  0.71141078  0.65243312    -0.54500
C1611       C  0.08121207  0.70441697  0.61367711     0.08700
C1612       C  0.05038462  0.66669346  0.59793712     0.19600
C1613       C  0.01273146  0.69926222  0.65114025    -0.55200
C1614       C  0.01328699  0.69078967  0.61260130     0.08800
C1615       C  0.05388542  0.62024998  0.65970551    -0.54700
C1616       C  0.05606951  0.61313123  0.62096493     0.08500
H1617       H  0.09927667  0.73745127  0.66760389     0.13900
H1618       H  0.05117992  0.66143275  0.56632344    -0.00400
H1619       H  0.98793330  0.71217132  0.66627666     0.14200
H1620       H  0.05966810  0.58704008  0.67992072     0.14000
C1621       C  0.15179366  0.69033868  0.91341603     0.85700
C1622       C  0.14946319  0.63874290  0.93830281    -0.54500
C1623       C  0.18082882  0.62530033  0.95920792     0.08700
C1624       C  0.21322191  0.66657824  0.95084565     0.19600
C1625       C  0.16391477  0.73505341  0.94095322    -0.55200
C1626       C  0.19551490  0.72364024  0.96112312     0.08800
C1627       C  0.18449186  0.68034426  0.88738200    -0.54700
C1628       C  0.21683141  0.66814404  0.90544509     0.09300
H1629       H  0.12380356  0.61621752  0.94050446     0.13900
H1630       H  0.23932354  0.65720494  0.96659842    -0.00400
H1631       H  0.14760417  0.77204310  0.94561221     0.14200
H1632       H  0.18232672  0.68390424  0.85630187     0.14000
C1633       C  0.04744332  0.67349279  0.78251862     0.15200
C1634       C  0.05418831  0.65248246  0.81935253    -0.33800
C1635       C  0.07493524  0.68511012  0.84438262     0.19600
C1636       C  0.08539488  0.73821947  0.83447523     0.01800
C1637       C  0.07666101  0.76046729  0.79841179    -0.23600
C1638       C  0.05898805  0.72594472  0.77218091     0.11000
S1639       S  0.03263143  0.63454811  0.74524508    -0.07200
C1640       C  0.04528805  0.68764931  0.71483946    -0.10700
C1641       C  0.05676805  0.73489831  0.73349113    -0.27300
S1642       S  0.11664871  0.76674405  0.86490614    -0.04500
C1643       C  0.11773442  0.70529049  0.89013846    -0.17900
C1644       C  0.09299851  0.66623505  0.87646915    -0.15900
H1645       H  0.04764637  0.61009873  0.82647978     0.19400
H1646       H  0.08733545  0.80023266  0.78959945     0.15500
H1647       H  0.06627588  0.77210175  0.71937765     0.18000
H1648       H  0.09185633  0.62367756  0.88582536     0.11300
C1649       C  0.45105332  0.88627314  0.03359004     0.15200
C1650       C  0.44362412  0.91316636  0.57169863    -0.33800
C1651       C  0.42236182  0.88134116  0.59680653     0.19600
C1652       C  0.41297347  0.82741144  0.58840557     0.01800
C1653       C  0.42042357  0.80078261  0.05092635    -0.23600
C1654       C  0.43914711  0.83373518  0.02438777     0.11000
S1655       S  0.46693832  0.92349470  0.99581139    -0.07200
C1656       C  0.45403551  0.86975860  0.96654992    -0.10700
C1657       C  0.44193630  0.82332299  0.98609021    -0.27300
S1658       S  0.38054018  0.79990113  0.61772946    -0.04500
C1659       C  0.37829426  0.86227521  0.64090079    -0.17900
C1660       C  0.40292488  0.90141367  0.62716265    -0.15900
H1661       H  0.44909625  0.95621178  0.57738048     0.19400
H1662       H  0.40941727  0.76100220  0.04294207     0.15500
H1663       H  0.43211594  0.78596755  0.97274976     0.18000
H1664       H  0.40341218  0.94434895  0.63519589     0.11300
C1665       C  0.94153148  0.97326551  0.81596579     0.15200
C1666       C  0.92474632  0.99505893  0.78314438    -0.33800
C1667       C  0.91789336  0.95871598  0.75314519     0.19600
C1668       C  0.93097539  0.90485964  0.75371795     0.01800
C1669       C  0.95109223  0.88464937  0.78518231    -0.23600
C1670       C  0.95410030  0.91915871  0.81701420     0.11000
S1671       S  0.93945073  0.00433013  0.85935725    -0.07200
C1672       C  0.95277350  0.94239060  0.87963817    -0.10700
C1673       C  0.96190748  0.90187837  0.85343056    -0.27300
S1674       S  0.91151607  0.86356241  0.71994715    -0.04500
C1675       C  0.88343770  0.91842465  0.70708455    -0.17900
C1676       C  0.89135887  0.96682545  0.72595744    -0.15900
H1677       H  0.91232617  0.03579821  0.78339610     0.19400
H1678       H  0.95877468  0.84149605  0.78711734     0.15500
H1679       H  0.97033791  0.86020209  0.86067928     0.18000
H1680       H  0.87454956  0.00364245  0.72410473     0.11300
C1681       C  0.57968731  0.57563498  0.50919068     0.15200
C1682       C  0.56899206  0.55286533  0.54445305    -0.33800
C1683       C  0.55333315  0.58866917  0.57125744     0.19600
C1684       C  0.54534037  0.64311440  0.56189113     0.01800
C1685       C  0.55307089  0.66446481  0.52555983    -0.23600
C1686       C  0.57204613  0.63027750  0.50021726     0.11000
S1687       S  0.61085815  0.54544967  0.47948248    -0.07200
C1688       C  0.61637645  0.60573355  0.95643640    -0.10700
C1689       C  0.59165358  0.64859014  0.46932150    -0.27300
S1690       S  0.53448163  0.68321197  0.59978735    -0.04500
C1691       C  0.54349239  0.62721320  0.62928147    -0.17900
C1692       C  0.55095609  0.57879678  0.60987719    -0.15900
H1693       H  0.57734115  0.51144180  0.55258946     0.19400
H1694       H  0.54929831  0.70796866  0.51936419     0.15500
H1695       H  0.59117973  0.68815061  0.96087003     0.18000
H1696       H  0.55816919  0.53993508  0.62351627     0.11300
loop_ 
_geom_bond_atom_site_label_1 
_geom_bond_atom_site_label_2 
_geom_bond_distance 
_geom_bond_site_symmetry_2 
_ccdc_geom_bond_type 
Zr1           O2   2.442       .  S
Zr1           O3   2.434       .  S
Zr1           O4   2.445       .  S
Zr1           O7   2.408       .  S
Zr1           O9   2.368       .  S
Zr1          O10   2.385       .  S
Zr1          O11   2.406       .  S
Zr1          O12   2.398       .  S
O2           H58   0.990       .  S
O2           H66   0.991       .  S
O3           C23   1.281       .  A
O4           C25   1.284       .  A
O5          Zr15   2.529       .  S
O5           C24   1.298       .  A
O6          Zr14   2.417       .  S
O6           C25   1.279       .  A
O7           C24   1.282       .  A
O8          Zr16   2.388       .  S
O8           C23   1.275       .  A
O9          Zr14   2.392       .  S
O9          Zr16   2.378       .  S
O10         Zr15   2.406       .  S
O10         Zr16   2.385       .  S
O10          H45   0.966       .  S
O11         Zr14   2.394       .  S
O11         Zr31   2.422       .  S
O11          H48   0.964       .  S
O12         Zr15   2.384       .  S
O12         Zr31   2.366       .  S
Zr13         O38   2.437       .  S
Zr13         O40   2.476       .  S
Zr13        O880   2.477       .  S
Zr13        O876   2.466       .  S
Zr13         O19   2.399       .  S
Zr13         O20   2.433       .  S
Zr13         O21   2.390       .  S
Zr13         O22   2.427       .  S
Zr14         O33   2.437       .  S
Zr14         O26   2.437       .  S
Zr14        O875   2.415       .  S
Zr14         O20   2.399       .  S
Zr14         O21   2.396       .  S
Zr15         O17   2.436       .  S
Zr15         O39   2.440       .  S
Zr15         O41   2.486       .  S
Zr15         O19   2.388       .  S
Zr15         O22   2.422       .  S
Zr16         O42   2.435       .  S
Zr16         O43   2.434       .  S
Zr16         O18   2.438       .  S
Zr16         O19   2.363       .  S
Zr16         O20   2.376       .  S
O17          H54   0.990       .  S
O18          H49   0.990       .  S
O18          H63   0.990       .  S
O20          H46   0.966       .  S
O21         Zr31   2.389       .  S
O22         Zr31   2.397       .  S
O22          H47   0.966       .  S
C23          C74   1.468       .  S
C24          C81   1.518       .  S
C25         C252   1.469       .  S
O26          H62   0.990       .  S
O27        Zr862   2.412   1_545  S
O27          C29   1.272       .  A
O28        Zr861   2.466   1_545  S
O28          C29   1.289       .  A
C29          C69   1.477       .  S
O30         Zr31   2.435       .  S
O30          H59   0.991       .  S
Zr31         O34   2.439       .  S
Zr31         O35   2.448       .  S
Zr31         O36   2.422       .  S
O32        Zr861   2.479   1_545  S
O32          C37   1.284       .  A
O33          H50   0.990       .  S
O33          H65   0.990       .  S
O34          H51   0.991       .  S
O35          H55   0.989       .  S
O35          H64   0.990       .  S
O36         C885   1.267       .  A
C37         O884   1.269   1_545  A
C37          C84   1.481       .  S
O38          H57   0.990       .  S
O38          H61   0.990       .  S
O39          H53   0.990       .  S
O39          H60   0.990       .  S
O40          C44   1.293       .  A
O41          C44   1.299       .  A
O42          H52   0.990       .  S
O43          H56   0.990       .  S
C44         C176   1.494       .  S
C67          C68   1.540       .  S
C67          C73   1.538       .  S
C67          C71   1.524       .  S
C67         C419   1.513       .  S
C68          H75   1.085       .  S
C68          C69   1.366       .  D
C69          C70   1.544       .  S
C70          C74   1.531       .  S
C70          C72   1.542       .  S
C70          H76   1.111       .  S
C71          H77   1.087       .  S
C71          C72   1.362       .  D
C72         C205   1.469       .  S
C73          H78   1.085       .  S
C73          C74   1.366       .  D
C79          C80   1.521       .  S
C79          C85   1.513       .  S
C79          C83   1.517       .  S
C79         C416   1.511       .  S
C80          H87   1.080       .  S
C80          C81   1.378       .  D
C81          C82   1.569       .  S
C82          C86   1.585       .  S
C82          C84   1.561       .  S
C82          H88   1.110       .  S
C83          H89   1.082       .  S
C83          C84   1.362       .  D
C85          H90   1.089       .  S
C85          C86   1.355       .  D
C86         C558   1.493       .  S
Zr91         O92   2.442       .  S
Zr91         O93   2.427       .  S
Zr91         O94   2.459       .  S
Zr91         O97   2.409       .  S
Zr91         O99   2.362       .  S
Zr91        O100   2.388       .  S
Zr91        O101   2.406       .  S
Zr91        O102   2.386       .  S
O92         H148   0.990       .  S
O92         H156   0.990       .  S
O93         C113   1.281   1_554  A
O94         C115   1.288       .  A
O95        Zr105   2.508       .  S
O95         C114   1.293       .  A
O96        Zr104   2.414       .  S
O96         C115   1.278       .  A
O97         C114   1.284       .  A
O98        Zr106   2.405       .  S
O98         C113   1.278       .  A
O99        Zr104   2.394       .  S
O99        Zr106   2.376   1_554  S
O100       Zr105   2.413       .  S
O100       Zr106   2.382   1_554  S
O100        H135   0.966       .  S
O101       Zr104   2.393       .  S
O101       Zr121   2.419       .  S
O101        H138   0.966       .  S
O102       Zr105   2.373       .  S
O102       Zr121   2.349       .  S
Zr103       O552   2.435   1_554  S
Zr103       O122   2.493       .  S
Zr103       O130   2.486   1_554  S
Zr103       O118   2.452   1_554  S
Zr103       O109   2.399   1_554  S
Zr103       O110   2.435   1_554  S
Zr103       O111   2.384       .  S
Zr103       O112   2.407       .  S
Zr104       O123   2.437       .  S
Zr104       O116   2.437       .  S
Zr104       O117   2.414       .  S
Zr104       O110   2.402   1_554  S
Zr104       O111   2.393       .  S
Zr105       O107   2.436       .  S
Zr105       O129   2.438       .  S
Zr105       O131   2.465   1_554  S
Zr105       O109   2.384   1_554  S
Zr105       O112   2.416       .  S
Zr106       O556   2.435       .  S
Zr106       O557   2.434       .  S
Zr106       O532   2.438       .  S
Zr106       O109   2.375       .  S
Zr106       O110   2.384       .  S
O107        H144   0.990       .  S
O108       Zr530   2.438       .  S
O108        H139   0.990       .  S
O108        H153   0.990       .  S
O110        H136   0.965       .  S
O111       Zr121   2.382       .  S
O112       Zr121   2.388       .  S
O112        H137   0.966       .  S
C113        C164   1.471       .  S
C114        C171   1.507       .  S
C115        C342   1.476   1_655  S
O116        H152   0.990       .  S
O117        C119   1.273   1_545  A
O118        C119   1.289   1_546  A
C119       C1007   1.469   1_554  S
O120       Zr121   2.436       .  S
O120        H149   0.990       .  S
Zr121       O124   2.423       .  S
Zr121       O125   2.439       .  S
Zr121       O126   2.415       .  S
O122        C127   1.290       .  A
O123        H140   0.990       .  S
O123        H155   0.990       .  S
O124        H141   0.991       .  S
O125        H145   0.989       .  S
O125        H154   0.990       .  S
O126        C127   1.273       .  A
C127       C1022   1.486   1_545  S
O128       Zr527   2.437       .  S
O128        H147   0.990   1_545  S
O128        H151   0.990       .  S
O129        H143   0.990       .  S
O129        H150   0.990       .  S
O130        C134   1.296       .  A
O131        C134   1.293       .  A
O132       Zr530   2.435       .  S
O132        H142   0.990       .  S
O133       Zr530   2.436       .  S
O133        H146   0.990       .  S
C134        C510   1.491       .  S
C157        C158   1.538       .  S
C157        C163   1.538       .  S
C157        C161   1.521       .  S
C157        C400   1.505       .  S
C158       H1013   1.086       .  S
C158        C583   1.364       .  D
C159        C967   1.466   1_556  S
C159        C160   1.539       .  S
C159        C582   1.362       .  D
C160        C164   1.535       .  S
C160        C162   1.543       .  S
C160        H166   1.111   1_556  S
C161        H167   1.087   1_655  S
C161        C586   1.359       .  D
C162        C719   1.465   1_656  S
C162        C585   1.358       .  D
C163        H168   1.085       .  S
C163        C588   1.365       .  D
C164        C587   1.367       .  D
H165       C1006   1.085       .  S
C169        C170   1.512       .  S
C169        C175   1.511       .  S
C169        C173   1.524       .  S
C169        C403   1.507       .  S
C170        H177   1.084       .  S
C170        C171   1.376       .  D
C171        C172   1.569       .  S
C172        C176   1.589       .  S
C172        C174   1.562       .  S
C172        H178   1.110       .  S
C173       H1027   1.083       .  S
C173        C174   1.363       .  D
C174        C975   1.489       .  S
C175        H180   1.088       .  S
C175        C176   1.356       .  D
H179       C1021   1.084       .  S
Zr181       O182   2.445   1_545  S
Zr181       O184   2.441       .  S
Zr181      O1031   2.415   1_545  S
Zr181      O1035   2.398   1_545  S
Zr181       O189   2.365       .  S
Zr181       O190   2.389       .  S
Zr181       O191   2.403       .  S
Zr181       O192   2.396       .  S
O182        H246   0.991   1_565  S
O182       H1086   0.990       .  S
O183      Zr1029   2.429       .  S
O183        C203   1.280       .  A
O184        C205   1.283       .  A
O185       Zr195   2.528       .  S
O185       C1052   1.299   1_545  A
O186       Zr194   2.419       .  S
O186        C205   1.280       .  A
O187      Zr1029   2.397       .  S
O187        C204   1.280       .  A
O188       Zr196   2.395       .  S
O188       C1051   1.278   1_545  A
O189       Zr194   2.395       .  S
O189       Zr196   2.372       .  S
O190       Zr195   2.408       .  S
O190       Zr196   2.382       .  S
O190        H225   0.966       .  S
O191       Zr194   2.397       .  S
O191       Zr211   2.419       .  S
O191        H228   0.964       .  S
O192       Zr195   2.389       .  S
O192       Zr211   2.362       .  S
Zr193       O218   2.436       .  S
Zr193       O212   2.483       .  S
Zr193       O220   2.472       .  S
Zr193       O208   2.468       .  S
Zr193       O199   2.401       .  S
Zr193       O200   2.431       .  S
Zr193       O201   2.391       .  S
Zr193       O202   2.423       .  S
Zr194       O213   2.437       .  S
Zr194       O206   2.438       .  S
Zr194       O207   2.413       .  S
Zr194       O200   2.402       .  S
Zr194       O201   2.397       .  S
Zr195       O197   2.438       .  S
Zr195       O219   2.437       .  S
Zr195       O221   2.496       .  S
Zr195       O199   2.381       .  S
Zr195       O202   2.420       .  S
Zr196       O222   2.438       .  S
Zr196       O223   2.436       .  S
Zr196       O198   2.435       .  S
Zr196       O199   2.369       .  S
Zr196       O200   2.381       .  S
O197        H234   0.990       .  S
O198        H229   0.990       .  S
O198        H243   0.990       .  S
O200        H226   0.965       .  S
O201       Zr211   2.389       .  S
O202       Zr211   2.403       .  S
O202        H227   0.966       .  S
C203       O1036   1.276       .  A
C203        C254   1.468       .  S
C204       O1033   1.299       .  A
C204        C261   1.514       .  S
O206        H242   0.990       .  S
O207        C209   1.272       .  A
O208        C209   1.289       .  A
C209        C249   1.477       .  S
O210       Zr211   2.437       .  S
O210        H239   0.991       .  S
Zr211       O214   2.441       .  S
Zr211       O215   2.448       .  S
Zr211       O216   2.424       .  S
O212        C217   1.285       .  A
O213        H230   0.990       .  S
O213        H245   0.991       .  S
O214        H231   0.991       .  S
O215        H235   0.989       .  S
O215        H244   0.990       .  S
O216        C217   1.270       .  A
C217        C264   1.484       .  S
O218        H237   0.990       .  S
O218        H241   0.990       .  S
O219        H233   0.990   1_545  S
O219       H1088   0.990   1_545  S
O220        C224   1.292       .  A
O221        C224   1.299       .  A
O222        H232   0.990       .  S
O223        H236   0.990       .  S
C224        C356   1.495       .  S
H238       O1030   0.991       .  S
H240       O1067   0.990       .  S
C247        C248   1.542       .  S
C247        C253   1.535       .  S
C247        C251   1.523       .  S
C247        C384   1.508       .  S
C248        H255   1.085       .  S
C248        C249   1.367       .  D
C249        C250   1.545       .  S
C250        C254   1.532       .  S
C250        C252   1.544       .  S
C250        H256   1.111       .  S
C251        H257   1.087       .  S
C251        C252   1.361       .  D
C253        H258   1.085       .  S
C253        C254   1.363       .  D
C259        C260   1.518       .  S
C259        C265   1.512       .  S
C259        C263   1.517       .  S
C259        C387   1.509       .  S
C260        H267   1.081       .  S
C260        C261   1.381       .  D
C261        C262   1.569       .  S
C262        C266   1.587       .  S
C262        C264   1.564       .  S
C262        H268   1.110       .  S
C263        H269   1.083       .  S
C263        C264   1.360       .  D
C265        H270   1.089       .  S
C265        C266   1.354       .  D
C266        C314   1.496       .  S
Zr271       O272   2.442   1_565  S
Zr271       O274   2.447       .  S
Zr271       O277   2.400   1_565  S
Zr271       O697   2.440   1_565  S
Zr271      O1551   2.363       .  S
Zr271       O704   2.385   1_565  S
Zr271      O1129   2.412       .  S
Zr271      O1130   2.402       .  S
O272        H328   0.990       .  S
O272       H1184   0.990       .  S
O273       Zr695   2.427   1_545  S
O273        C293   1.279       .  A
O274       C1143   1.285       .  A
O275      Zr1557   2.524   1_545  S
O275        C294   1.297       .  A
O276       Zr284   2.407       .  S
O276        C719   1.276       .  A
O277        C294   1.281       .  A
O278      Zr1134   2.408   1_545  S
O278        C293   1.280       .  A
O279       Zr284   2.392       .  S
O279       Zr286   2.369       .  S
O279      Zr1543   2.365       .  S
O280       Zr695   2.386   1_545  S
O280      Zr1133   2.404   1_545  S
O280      Zr1134   2.383   1_545  S
O280        H315   0.966       .  S
O281       Zr301   2.420       .  S
O281      Zr1119   2.402       .  S
O281       Zr708   2.392       .  S
O281        H318   0.964       .  S
O282       Zr301   2.360       .  S
O282      Zr1119   2.398       .  S
O282       Zr709   2.388       .  S
Zr283       O308   2.440       .  S
Zr283       O302   2.491       .  S
Zr283       O310   2.477       .  S
Zr283       O298   2.476       .  S
Zr283       O289   2.409       .  S
Zr283       O290   2.438       .  S
Zr283       O291   2.390       .  S
Zr283       O292   2.426       .  S
Zr284       O296   2.436       .  S
Zr284       O727   2.437   1_554  S
Zr284       O297   2.411       .  S
Zr284       O290   2.400       .  S
Zr284       O291   2.397       .  S
Zr284       O705   2.396   1_554  S
Zr285       O711   2.436       .  S
Zr285      O1157   2.437       .  S
Zr285       O311   2.487       .  S
Zr285      O1547   2.535       .  S
Zr285       O289   2.390       .  S
Zr285       O292   2.423       .  S
Zr285      O1128   2.401       .  S
Zr285       O706   2.390       .  S
Zr286       O313   2.436       .  S
Zr286       O288   2.436       .  S
Zr286      O1160   2.435       .  S
Zr286      O1126   2.411       .  S
Zr286       O289   2.374       .  S
Zr286       O290   2.384       .  S
Zr286      O1128   2.381       .  S
O287       Zr709   2.436       .  S
O287        H324   0.990       .  S
O288        H319   0.990       .  S
O288        H333   0.990       .  S
O290        H316   0.966       .  S
O291       Zr725   2.390   1_554  S
O292       Zr725   2.394   1_554  S
O292        H317   0.966       .  S
C293        C344   1.472       .  S
C294        C351   1.513       .  S
C295       O1122   1.283       .  A
C295        O700   1.278       .  A
C295        C586   1.467   1_455  S
O296        H332   0.990       .  S
O297        C299   1.271       .  A
O298        C299   1.292       .  A
C299        C339   1.481       .  S
O300       Zr301   2.439       .  S
O300        H329   0.991       .  S
Zr301       O304   2.442       .  S
Zr301       O305   2.438       .  S
Zr301       O306   2.421       .  S
Zr301       O715   2.389       .  S
Zr301       O716   2.398       .  S
O302        C731   1.285   1_554  A
O303       Zr708   2.434       .  S
O303        H320   0.990       .  S
O303        H335   0.990       .  S
O304        H321   0.990       .  S
O305        H325   0.990       .  S
O305        H334   0.990       .  S
O306        C307   1.268       .  A
C307        O726   1.285       .  A
C307        C354   1.486       .  S
O308        H327   0.990       .  S
O308        H331   0.990       .  S
O309      Zr1133   2.439   1_545  S
O309        H323   0.990       .  S
O309        H330   0.990       .  S
O310        C314   1.294       .  A
O311        C314   1.298       .  A
O312      Zr1134   2.437   1_545  S
O312        H322   0.990   1_545  S
O313        H326   0.991       .  S
H336       O1120   0.991       .  S
C337        C338   1.540       .  S
C337        C343   1.537       .  S
C337        C341   1.525       .  S
C337        C368   1.507       .  S
C338        H345   1.085       .  S
C338        C339   1.364       .  D
C339        C340   1.548       .  S
C340        C344   1.537       .  S
C340        C342   1.549       .  S
C340        H346   1.111       .  S
C341        H347   1.087   1_455  S
C341        C342   1.361       .  D
C343        H348   1.085       .  S
C343        C344   1.363       .  D
C349        C350   1.517       .  S
C349        C355   1.512       .  S
C349        C353   1.518       .  S
C349        C371   1.509       .  S
C350        H357   1.079       .  S
C350        C351   1.378       .  D
C351        C352   1.567       .  S
C352        C356   1.589       .  S
C352        C354   1.566       .  S
C352        H358   1.110       .  S
C353        H359   1.084       .  S
C353        C354   1.363       .  D
C355        H360   1.089       .  S
C355        C356   1.354       .  D
C361        S367   1.696       .  A
C361        C366   1.387       .  A
C361        C362   1.396       .  A
C362        C363   1.398       .  A
C362        H373   1.084       .  S
C363        C372   1.364       .  A
C363        C364   1.386       .  A
C364        S370   1.697       .  A
C364        C365   1.397       .  A
C365        C366   1.397       .  A
C365        H374   1.083       .  S
C366        C369   1.364       .  A
S367        C368   1.726       .  A
C368        C369   1.385       .  A
C369        H375   1.083       .  S
S370        C371   1.724       .  A
C371        C372   1.389       .  A
C372        H376   1.081       .  S
C377        S383   1.696       .  A
C377        C382   1.387       .  A
C377        C802   1.398       .  A
C378        C379   1.400       .  A
C378        C801   1.398       .  A
C378        H389   1.083       .  S
C379        C388   1.368       .  A
C379        C380   1.387       .  A
C380        S386   1.694       .  A
C380        C805   1.396       .  A
C381        C382   1.396       .  A
C381        C804   1.396       .  A
C381        H390   1.083       .  S
C382        C385   1.365       .  A
S383        C384   1.728       .  A
C384        C385   1.384       .  A
C385        H391   1.082       .  S
S386        C387   1.724       .  A
C387        C388   1.389       .  A
C388        H392   1.081       .  S
C393        S399   1.698       .  A
C393        C398   1.387       .  A
C393        C394   1.393       .  A
C394        C395   1.396       .  A
C394        H405   1.083       .  S
C395        C404   1.360       .  A
C395        C396   1.387       .  A
C396        S402   1.703       .  A
C396        C397   1.398       .  A
C397        C398   1.401       .  A
C397        H406   1.084       .  S
C398        C401   1.363       .  A
S399        C400   1.720       .  A
C400        C401   1.389       .  A
C401        H407   1.082       .  S
S402        C403   1.726       .  A
C403        C404   1.382       .  A
C404        H408   1.080       .  S
C409        S415   1.698   1_554  A
C409        C414   1.386       .  A
C409        C410   1.399       .  A
C410        C411   1.400       .  A
C410        H421   1.083       .  S
C411        C420   1.368       .  A
C411        C412   1.387       .  A
C412        S418   1.698       .  A
C412        C413   1.397       .  A
C413        C414   1.399       .  A
C413        H422   1.083       .  S
C414        C417   1.367   1_554  A
S415        C840   1.725       .  A
C416        S839   1.726       .  A
C416        C841   1.389       .  A
C417        C840   1.389       .  A
C417        H847   1.081       .  S
S418        C419   1.727       .  A
C419        C420   1.388       .  A
C420        H424   1.082       .  S
H423        C841   1.081       .  S
Zr425       O426   2.443       .  S
Zr425       O427   2.430       .  S
Zr425       O428   2.430       .  S
Zr425       O431   2.408       .  S
Zr425       O433   2.372       .  S
Zr425       O434   2.382       .  S
Zr425       O435   2.407       .  S
Zr425       O436   2.392       .  S
O426        H482   0.990       .  S
O426        H490   0.991       .  S
O427        C447   1.281       .  A
O428        C449   1.281       .  A
O429       Zr439   2.523       .  S
O429        C448   1.297       .  A
O430       Zr438   2.420       .  S
O430        C449   1.280       .  A
O431        C448   1.282       .  A
O432       Zr440   2.401       .  S
O432        C447   1.278       .  A
O433       Zr438   2.396       .  S
O433       Zr440   2.375       .  S
O434       Zr439   2.403       .  S
O434       Zr440   2.386       .  S
O434        H469   0.966       .  S
O435       Zr438   2.394       .  S
O435       Zr455   2.422       .  S
O435        H472   0.964       .  S
O436       Zr439   2.381       .  S
O436       Zr455   2.363       .  S
Zr437       O462   2.438       .  S
Zr437      O1304   2.476       .  S
Zr437       O464   2.474       .  S
Zr437      O1300   2.463       .  S
Zr437       O443   2.400       .  S
Zr437       O444   2.438       .  S
Zr437       O445   2.394       .  S
Zr437       O446   2.426       .  S
Zr438       O457   2.437       .  S
Zr438       O450   2.435       .  S
Zr438      O1299   2.419       .  S
Zr438       O444   2.401       .  S
Zr438       O445   2.393       .  S
Zr439       O441   2.433       .  S
Zr439       O463   2.437       .  S
Zr439       O465   2.477       .  S
Zr439       O443   2.389       .  S
Zr439       O446   2.419       .  S
Zr440       O466   2.435       .  S
Zr440       O467   2.436       .  S
Zr440       O442   2.439       .  S
Zr440       O443   2.372       .  S
Zr440       O444   2.377       .  S
O441        H478   0.990       .  S
O442        H473   0.990       .  S
O442        H487   0.990       .  S
O444        H470   0.966       .  S
O445       Zr455   2.386       .  S
O446       Zr455   2.404       .  S
O446        H471   0.966       .  S
C447        C498   1.471       .  S
C448        C505   1.515       .  S
C449        C676   1.465       .  S
O450        H486   0.990       .  S
O451      Zr1286   2.410   1_545  S
O451        C453   1.271       .  A
O452      Zr1285   2.471   1_545  S
O452        C453   1.290       .  A
C453        C493   1.476       .  S
O454       Zr455   2.437       .  S
O454        H483   0.991       .  S
Zr455       O458   2.440       .  S
Zr455       O459   2.449       .  S
Zr455       O460   2.426       .  S
O456      Zr1285   2.480   1_545  S
O456        C461   1.284       .  A
O457        H474   0.990       .  S
O457        H489   0.990       .  S
O458        H475   0.991       .  S
O459        H479   0.989       .  S
O459        H488   0.990       .  S
O460       C1309   1.270       .  A
C461       O1308   1.269   1_545  A
C461        C508   1.480       .  S
O462        H481   0.990       .  S
O462        H485   0.990       .  S
O463        H477   0.990       .  S
O463        H484   0.990       .  S
O464        C468   1.292       .  A
O465        C468   1.296       .  A
O466        H476   0.990       .  S
O467        H480   0.990       .  S
C468        C600   1.491       .  S
C491        C492   1.538       .  S
C491        C497   1.539       .  S
C491        C495   1.525       .  S
C491        C843   1.509       .  S
C492        H499   1.085       .  S
C492        C493   1.364       .  D
C493        C494   1.547       .  S
C494        C498   1.533       .  S
C494        C496   1.546       .  S
C494        H500   1.111       .  S
C495        H501   1.087       .  S
C495        C496   1.362       .  D
C496        C629   1.475       .  S
C497        H502   1.085       .  S
C497        C498   1.366       .  D
C503        C504   1.521       .  S
C503        C509   1.513       .  S
C503        C507   1.518       .  S
C503        C840   1.512       .  S
C504        H511   1.080       .  S
C504        C505   1.379       .  D
C505        C506   1.568       .  S
C506        C510   1.584       .  S
C506        C508   1.559       .  S
C506        H512   1.110       .  S
C507        H513   1.082       .  S
C507        C508   1.362       .  D
C509        H514   1.089       .  S
C509        C510   1.355       .  D
Zr515       O516   2.442       .  S
Zr515       O517   2.411       .  S
Zr515       O518   2.457       .  S
Zr515       O521   2.411       .  S
Zr515       O523   2.363       .  S
Zr515       O524   2.391       .  S
Zr515       O525   2.398       .  S
Zr515       O526   2.380       .  S
O516        H572   0.990       .  S
O516        H580   0.990       .  S
O517        C537   1.278       .  A
O518        C539   1.287       .  A
O519       Zr529   2.505       .  S
O519        C538   1.294       .  A
O520       Zr528   2.411       .  S
O520        C539   1.278       .  A
O521        C538   1.285       .  A
O522       Zr530   2.407       .  S
O522        C537   1.279       .  A
O523       Zr528   2.388       .  S
O523       Zr530   2.372       .  S
O524       Zr529   2.415       .  S
O524       Zr530   2.381       .  S
O524        H559   0.966       .  S
O525       Zr528   2.397       .  S
O525       Zr545   2.414       .  S
O525        H562   0.966       .  S
O526       Zr529   2.374       .  S
O526       Zr545   2.344       .  S
Zr527       O546   2.491       .  S
Zr527       O554   2.483       .  S
Zr527       O542   2.454       .  S
Zr527       O533   2.401       .  S
Zr527       O534   2.434       .  S
Zr527       O535   2.382       .  S
Zr527       O536   2.404       .  S
Zr528       O547   2.437       .  S
Zr528       O540   2.436       .  S
Zr528       O541   2.413       .  S
Zr528       O534   2.401       .  S
Zr528       O535   2.393       .  S
Zr529       O531   2.437       .  S
Zr529       O553   2.436       .  S
Zr529       O555   2.472       .  S
Zr529       O533   2.384       .  S
Zr529       O536   2.413       .  S
Zr530       O533   2.378       .  S
Zr530       O534   2.391       .  S
O531        H568   0.990       .  S
O532        H563   0.990       .  S
O532        H577   0.990       .  S
O534        H560   0.964       .  S
O535       Zr545   2.383       .  S
O536       Zr545   2.389       .  S
O536        H561   0.966       .  S
C537        C588   1.467       .  S
C538        C595   1.508       .  S
C539        C766   1.474   1_655  S
O540        H576   0.990       .  S
O541        C543   1.274   1_545  A
O542        C543   1.289   1_545  A
C543       C1431   1.468       .  S
O544       Zr545   2.438       .  S
O544        H573   0.990       .  S
Zr545       O548   2.424       .  S
Zr545       O549   2.440       .  S
Zr545       O550   2.406       .  S
O546        C551   1.290       .  A
O547        H564   0.990       .  S
O547        H579   0.990       .  S
O548        H565   0.990       .  S
O549        H569   0.990       .  S
O549        H578   0.990       .  S
O550        C551   1.272       .  A
C551       C1446   1.480   1_545  S
O552        H571   0.990   1_545  S
O552        H575   0.990   1_556  S
O553        H567   0.990       .  S
O553        H574   0.990       .  S
O554        C558   1.295       .  A
O555        C558   1.294       .  A
O556        H566   0.990       .  S
O557        H570   0.990       .  S
C581        C582   1.534       .  S
C581        C587   1.540       .  S
C581        C585   1.519       .  S
C581        C824   1.502       .  S
C582       H1437   1.085       .  S
C583       C1391   1.472       .  S
C583        C584   1.542       .  S
C584        C588   1.534       .  S
C584        C586   1.544       .  S
C584        H590   1.111       .  S
C585        H591   1.087   1_655  S
C587        H592   1.086       .  S
H589       C1430   1.086       .  S
C593        C594   1.510       .  S
C593        C599   1.510       .  S
C593        C597   1.524       .  S
C593        C827   1.502       .  S
C594        H601   1.084       .  S
C594        C595   1.376       .  D
C595        C596   1.572       .  S
C596        C600   1.589       .  S
C596        C598   1.560       .  S
C596        H602   1.110       .  S
C597       H1451   1.084       .  S
C597        C598   1.362       .  D
C598       C1399   1.489       .  S
C599        H604   1.089       .  S
C599        C600   1.354       .  D
H603       C1445   1.084       .  S
Zr605       O606   2.444   1_545  S
Zr605      O1455   2.422   1_545  S
Zr605       O608   2.452       .  S
Zr605      O1459   2.392       .  S
Zr605       O613   2.363       .  S
Zr605       O614   2.389       .  S
Zr605       O615   2.399       .  S
Zr605       O616   2.402       .  S
O606       H1510   0.991       .  S
O606        H670   0.991   1_565  S
O607      Zr1453   2.419       .  S
O607        C627   1.279       .  A
O608        C629   1.285       .  A
O609       Zr619   2.527       .  S
O609       C1476   1.298   1_545  A
O610       Zr618   2.418       .  S
O610        C629   1.279       .  A
O611      Zr1453   2.404       .  S
O611        C628   1.282       .  A
O612       Zr620   2.399       .  S
O612       C1475   1.278   1_545  A
O613       Zr618   2.392       .  S
O613       Zr620   2.376       .  S
O614       Zr619   2.407       .  S
O614       Zr620   2.379       .  S
O614        H649   0.966       .  S
O615       Zr618   2.393       .  S
O615       Zr635   2.423       .  S
O615        H652   0.964       .  S
O616       Zr619   2.388       .  S
O616       Zr635   2.362       .  S
Zr617       O642   2.440       .  S
Zr617       O636   2.481       .  S
Zr617       O644   2.475       .  S
Zr617       O632   2.468       .  S
Zr617       O623   2.401       .  S
Zr617       O624   2.433       .  S
Zr617       O625   2.391       .  S
Zr617       O626   2.426       .  S
Zr618       O637   2.436       .  S
Zr618       O630   2.436       .  S
Zr618       O631   2.407       .  S
Zr618       O624   2.404       .  S
Zr618       O625   2.397       .  S
Zr619       O621   2.436       .  S
Zr619       O643   2.438       .  S
Zr619       O645   2.494       .  S
Zr619       O623   2.383       .  S
Zr619       O626   2.421       .  S
Zr620       O646   2.435       .  S
Zr620       O647   2.436       .  S
Zr620       O622   2.436       .  S
Zr620       O623   2.368       .  S
Zr620       O624   2.384       .  S
O621        H658   0.990       .  S
O622        H653   0.990       .  S
O622        H667   0.990       .  S
O624        H650   0.965       .  S
O625       Zr635   2.389       .  S
O626       Zr635   2.403       .  S
O626        H651   0.966       .  S
C627       O1460   1.276       .  A
C627        C678   1.462       .  S
C628       O1457   1.297       .  A
C628        C685   1.513       .  S
O630        H666   0.990       .  S
O631        C633   1.272       .  A
O632        C633   1.290       .  A
C633        C673   1.474       .  S
O634       Zr635   2.438       .  S
O634        H663   0.991       .  S
Zr635       O638   2.437       .  S
Zr635       O639   2.449       .  S
Zr635       O640   2.423       .  S
O636        C641   1.284       .  A
O637        H654   0.990       .  S
O637        H669   0.990       .  S
O638        H655   0.991       .  S
O639        H659   0.989       .  S
O639        H668   0.990       .  S
O640        C641   1.269       .  A
C641        C688   1.484       .  S
O642        H661   0.991       .  S
O642        H665   0.990       .  S
O643        H657   0.990   1_545  S
O643       H1512   0.990   1_545  S
O644        C648   1.293       .  A
O645        C648   1.299       .  A
O646        H656   0.990       .  S
O647        H660   0.990       .  S
C648        C780   1.496       .  S
H662       O1454   0.990       .  S
H664       O1491   0.990       .  S
C671        C672   1.542       .  S
C671        C677   1.534       .  S
C671        C675   1.521       .  S
C671        C808   1.506       .  S
C672        H679   1.085       .  S
C672        C673   1.367       .  D
C673        C674   1.544       .  S
C674        C678   1.530       .  S
C674        C676   1.541       .  S
C674        H680   1.111       .  S
C675        H681   1.087       .  S
C675        C676   1.360       .  D
C677        H682   1.085       .  S
C677        C678   1.363       .  D
C683        C684   1.516       .  S
C683        C689   1.511       .  S
C683        C687   1.520       .  S
C683        C811   1.508       .  S
C684        H691   1.081       .  S
C684        C685   1.380       .  D
C685        C686   1.568       .  S
C686        C690   1.585       .  S
C686        C688   1.562       .  S
C686        H692   1.110       .  S
C687        H693   1.083       .  S
C687        C688   1.362       .  D
C689        H694   1.089       .  S
C689        C690   1.353       .  D
C690        C738   1.491       .  S
Zr695       O696   2.443   1_564  S
Zr695       O698   2.448   1_554  S
Zr695       O701   2.404   1_564  S
Zr695      O1127   2.365       .  S
Zr695      O1553   2.407   1_554  S
Zr695      O1554   2.398       .  S
O696        H752   0.990   1_556  S
O696       H1608   0.990       .  S
O697        C717   1.282       .  A
O698       C1567   1.285   1_556  A
O699      Zr1133   2.521   1_545  S
O699        C718   1.297   1_554  A
O700       Zr708   2.413       .  S
O701        C718   1.282       .  A
O702      Zr1558   2.395   1_545  S
O702        C717   1.277       .  A
O703      Zr1119   2.367       .  S
O703       Zr708   2.390       .  S
O703       Zr710   2.370       .  S
O704      Zr1557   2.405   1_545  S
O704      Zr1558   2.382   1_545  S
O704        H739   0.966       .  S
O705      Zr1543   2.406   1_556  S
O705       Zr725   2.420       .  S
O705        H742   0.964       .  S
O706      Zr1543   2.401       .  S
O706       Zr725   2.363   1_554  S
Zr707       O732   2.439       .  S
Zr707       O726   2.489       .  S
Zr707       O734   2.471       .  S
Zr707       O722   2.467       .  S
Zr707       O713   2.405       .  S
Zr707       O714   2.438       .  S
Zr707       O715   2.390       .  S
Zr707       O716   2.422       .  S
Zr708       O720   2.435       .  S
Zr708       O721   2.412       .  S
Zr708       O714   2.398       .  S
Zr708       O715   2.398       .  S
Zr709      O1581   2.437       .  S
Zr709      O1123   2.532       .  S
Zr709       O735   2.485       .  S
Zr709      O1552   2.404       .  S
Zr709       O713   2.387       .  S
Zr709       O716   2.420       .  S
Zr710      O1584   2.434       .  S
Zr710       O737   2.436       .  S
Zr710       O712   2.438       .  S
Zr710      O1550   2.408       .  S
Zr710      O1552   2.383       .  S
Zr710       O713   2.375       .  S
Zr710       O714   2.386       .  S
O711        H748   0.990       .  S
O712        H743   0.990       .  S
O712        H757   0.990       .  S
O714        H740   0.966       .  S
O716        H741   0.966       .  S
C717        C768   1.474       .  S
C718        C775   1.512       .  S
C719       O1546   1.284   1_554  A
O720        H756   0.990       .  S
O721        C723   1.272       .  A
O722        C723   1.290       .  A
C723        C763   1.478       .  S
O724       Zr725   2.437       .  S
O724        H753   0.991       .  S
Zr725       O728   2.442       .  S
Zr725       O729   2.435       .  S
Zr725       O730   2.420       .  S
O727        H744   0.990       .  S
O727        H759   0.990   1_556  S
O728        H745   0.990       .  S
O729        H749   0.990       .  S
O729        H758   0.990       .  S
O730        C731   1.267       .  A
C731        C778   1.487       .  S
O732        H751   0.990       .  S
O732        H755   0.990       .  S
O733      Zr1557   2.438   1_545  S
O733        H747   0.990       .  S
O733        H754   0.990       .  S
O734        C738   1.293       .  A
O735        C738   1.297       .  A
O736      Zr1558   2.436   1_545  S
O736        H746   0.990       .  S
O737        H750   0.990       .  S
H760       O1544   0.990       .  S
C761        C762   1.539       .  S
C761        C767   1.539       .  S
C761        C765   1.525       .  S
C761        C792   1.512       .  S
C762        H769   1.086       .  S
C762        C763   1.366       .  D
C763        C764   1.547       .  S
C764        C768   1.533       .  S
C764        C766   1.549       .  S
C764        H770   1.111       .  S
C765        H771   1.087   1_455  S
C765        C766   1.362       .  D
C767        H772   1.085       .  S
C767        C768   1.366       .  D
C773        C774   1.518       .  S
C773        C779   1.511       .  S
C773        C777   1.519       .  S
C773        C795   1.509       .  S
C774        H781   1.081       .  S
C774        C775   1.378       .  D
C775        C776   1.566       .  S
C776        C780   1.589       .  S
C776        C778   1.566       .  S
C776        H782   1.110       .  S
C777        H783   1.084       .  S
C777        C778   1.364       .  D
C779        H784   1.089       .  S
C779        C780   1.354       .  D
C785        S791   1.697       .  A
C785        C790   1.386       .  A
C785        C786   1.396       .  A
C786        C787   1.398       .  A
C786        H797   1.083       .  S
C787        C796   1.364       .  A
C787        C788   1.385       .  A
C788        S794   1.700       .  A
C788        C789   1.400       .  A
C789        C790   1.401       .  A
C789        H798   1.083       .  S
C790        C793   1.369       .  A
S791        C792   1.726       .  A
C792        C793   1.388       .  A
C793        H799   1.083       .  S
S794        C795   1.726       .  A
C795        C796   1.389       .  A
C796        H800   1.082       .  S
C801        S807   1.697   1_554  A
C801        C806   1.387       .  A
C802        C803   1.399       .  A
C802        H813   1.083       .  S
C803        C812   1.368       .  A
C803        C804   1.386       .  A
C804        S810   1.693       .  A
C805        C806   1.396       .  A
C805        H814   1.083       .  S
C806        C809   1.364   1_554  A
S807        C808   1.727       .  A
C808        C809   1.383       .  A
C809        H815   1.082       .  S
S810        C811   1.723       .  A
C811        C812   1.390       .  A
C812        H816   1.081       .  S
C817        S823   1.696       .  A
C817        C822   1.388       .  A
C817        C818   1.390       .  A
C818        C819   1.393       .  A
C818        H829   1.084       .  S
C819        C828   1.354       .  A
C819        C820   1.387       .  A
C820        S826   1.706       .  A
C820        C821   1.398       .  A
C821        C822   1.401       .  A
C821        H830   1.083       .  S
C822        C825   1.362       .  A
S823        C824   1.721       .  A
C824        C825   1.386       .  A
C825        H831   1.083       .  S
S826        C827   1.725       .  A
C827        C828   1.379       .  A
C828        H832   1.080       .  S
C833        S839   1.699       .  A
C833        C838   1.386       .  A
C833        C834   1.399       .  A
C834        C835   1.400       .  A
C834        H845   1.083       .  S
C835        C844   1.367       .  A
C835        C836   1.387       .  A
C836        S842   1.697       .  A
C836        C837   1.395       .  A
C837        C838   1.398       .  A
C837        H846   1.083       .  S
C838        C841   1.365       .  A
S842        C843   1.725       .  A
C843        C844   1.387       .  A
C844        H848   1.083       .  S
Zr849       O850   2.442       .  S
Zr849       O851   2.423       .  S
Zr849       O852   2.446       .  S
Zr849       O855   2.394       .  S
Zr849       O857   2.364       .  S
Zr849       O858   2.386       .  S
Zr849       O859   2.404       .  S
Zr849       O860   2.397       .  S
O850        H906   0.990       .  S
O850        H914   0.991       .  S
O851        C871   1.279       .  A
O852        C873   1.284       .  A
O853       Zr863   2.524       .  S
O853        C872   1.297       .  A
O854       Zr862   2.411       .  S
O854        C873   1.278       .  A
O855        C872   1.279       .  A
O856       Zr864   2.393       .  S
O856        C871   1.276       .  A
O857       Zr862   2.394       .  S
O857       Zr864   2.377       .  S
O858       Zr863   2.409       .  S
O858       Zr864   2.382       .  S
O858        H893   0.966       .  S
O859       Zr862   2.394       .  S
O859       Zr879   2.417       .  S
O859        H896   0.964       .  S
O860       Zr863   2.384       .  S
O860       Zr879   2.362       .  S
Zr861       O886   2.438   1_565  S
Zr861       O888   2.481       .  S
Zr861       O867   2.401       .  S
Zr861       O868   2.433       .  S
Zr861       O869   2.396       .  S
Zr861       O870   2.426       .  S
Zr862       O881   2.438   1_565  S
Zr862       O874   2.433       .  S
Zr862       O868   2.400       .  S
Zr862       O869   2.396       .  S
Zr863       O865   2.436       .  S
Zr863       O887   2.437       .  S
Zr863       O889   2.485       .  S
Zr863       O867   2.391       .  S
Zr863       O870   2.419       .  S
Zr864       O890   2.435       .  S
Zr864       O891   2.435       .  S
Zr864       O866   2.438       .  S
Zr864       O867   2.370       .  S
Zr864       O868   2.382       .  S
O865        H902   0.990       .  S
O866        H897   0.990       .  S
O866        H911   0.990       .  S
O868        H894   0.965       .  S
O869       Zr879   2.391       .  S
O870       Zr879   2.405       .  S
O870        H895   0.966       .  S
C871        C922   1.466       .  S
C872        C929   1.512       .  S
C873       C1100   1.467       .  S
O874        H910   0.990   1_565  S
O875        C877   1.274       .  A
O876        C877   1.290       .  A
C877        C917   1.474       .  S
O878       Zr879   2.437       .  S
O878        H907   0.991       .  S
Zr879       O882   2.441       .  S
Zr879       O883   2.448       .  S
Zr879       O884   2.422       .  S
O880        C885   1.283       .  A
O881        H898   0.990       .  S
O881        H913   0.990       .  S
O882        H899   0.991       .  S
O883        H903   0.989       .  S
O883        H912   0.990       .  S
C885        C932   1.480       .  S
O886        H905   0.991       .  S
O886        H909   0.990       .  S
O887        H901   0.990       .  S
O887        H908   0.990       .  S
O888        C892   1.294       .  A
O889        C892   1.298       .  A
O890        H900   0.990       .  S
O891        H904   0.990       .  S
C892       C1024   1.497       .  S
C915        C916   1.542       .  S
C915        C921   1.537       .  S
C915        C919   1.523       .  S
C915       C1267   1.507       .  S
C916        H923   1.085       .  S
C916        C917   1.367       .  D
C917        C918   1.542       .  S
C918        C922   1.531       .  S
C918        C920   1.541       .  S
C918        H924   1.111       .  S
C919        H925   1.087       .  S
C919        C920   1.360       .  D
C920       C1053   1.468       .  S
C921        H926   1.085       .  S
C921        C922   1.364       .  D
C927        C928   1.518       .  S
C927        C933   1.513       .  S
C927        C931   1.519       .  S
C927       C1264   1.511       .  S
C928        H935   1.079       .  S
C928        C929   1.378       .  D
C929        C930   1.563       .  S
C930        C934   1.587       .  S
C930        C932   1.561       .  S
C930        H936   1.110       .  S
C931        H937   1.083       .  S
C931        C932   1.363       .  D
C933        H938   1.088       .  S
C933        C934   1.355       .  D
C934       C1406   1.495       .  S
Zr939       O940   2.442       .  S
Zr939       O941   2.417       .  S
Zr939       O942   2.470       .  S
Zr939       O945   2.445       .  S
Zr939       O947   2.372       .  S
Zr939       O948   2.389       .  S
Zr939       O949   2.406       .  S
Zr939       O950   2.393       .  S
O940        H996   0.991       .  S
O940       H1004   0.990       .  S
O941        C961   1.278   1_554  A
O942        C963   1.289       .  A
O943       Zr953   2.488       .  S
O943        C962   1.291       .  A
O944       Zr952   2.407       .  S
O944        C963   1.277       .  A
O945        C962   1.289       .  A
O946       Zr954   2.409       .  S
O946        C961   1.279       .  A
O947       Zr952   2.398       .  S
O947       Zr954   2.373   1_554  S
O948       Zr953   2.407       .  S
O948       Zr954   2.380   1_554  S
O948        H983   0.966       .  S
O949       Zr952   2.402       .  S
O949       Zr969   2.412       .  S
O949        H986   0.966       .  S
O950       Zr953   2.379       .  S
O950       Zr969   2.357       .  S
Zr951      O1400   2.438   1_554  S
Zr951       O970   2.499       .  S
Zr951       O978   2.487   1_554  S
Zr951       O966   2.442   1_554  S
Zr951       O957   2.400   1_554  S
Zr951       O958   2.443   1_554  S
Zr951       O959   2.383       .  S
Zr951       O960   2.405       .  S
Zr952       O971   2.438       .  S
Zr952       O964   2.436       .  S
Zr952       O965   2.420       .  S
Zr952       O958   2.398   1_554  S
Zr952       O959   2.391       .  S
Zr953       O955   2.435       .  S
Zr953       O977   2.436       .  S
Zr953       O979   2.468   1_554  S
Zr953       O957   2.380   1_554  S
Zr953       O960   2.414       .  S
Zr954      O1404   2.435       .  S
Zr954      O1405   2.435       .  S
Zr954      O1380   2.438       .  S
Zr954       O957   2.378       .  S
Zr954       O958   2.386       .  S
O955        H992   0.989       .  S
O956      Zr1378   2.439       .  S
O956        H987   0.990       .  S
O956       H1001   0.990       .  S
O958        H984   0.964       .  S
O959       Zr969   2.377       .  S
O960       Zr969   2.392       .  S
O960        H985   0.966       .  S
C961       C1012   1.470       .  S
C962       C1019   1.501       .  S
C963       C1190   1.479   1_655  S
O964       H1000   0.990       .  S
O965        C967   1.274       .  A
O966        C967   1.287   1_556  A
O968       Zr969   2.437       .  S
O968        H997   0.990       .  S
Zr969       O972   2.427       .  S
Zr969       O973   2.438       .  S
Zr969       O974   2.417       .  S
O970        C975   1.291       .  A
O971        H988   0.990       .  S
O971       H1003   0.990       .  S
O972        H989   0.990       .  S
O973        H993   0.990       .  S
O973       H1002   0.990       .  S
O974        C975   1.274       .  A
O976      Zr1375   2.439       .  S
O976        H995   0.990       .  S
O976        H999   0.990       .  S
O977        H991   0.990       .  S
O977        H998   0.990       .  S
O978        C982   1.296       .  A
O979        C982   1.293       .  A
O980      Zr1378   2.436       .  S
O980        H990   0.990       .  S
O981      Zr1378   2.435       .  S
O981        H994   0.990       .  S
C982       C1358   1.492       .  S
C1005      C1006   1.536       .  S
C1005      C1011   1.540       .  S
C1005      C1009   1.522       .  S
C1005      C1248   1.502       .  S
C1006      C1431   1.363       .  D
C1007      C1008   1.540       .  S
C1007      C1430   1.363       .  D
C1008      C1012   1.537       .  S
C1008      C1010   1.544       .  S
C1008      H1014   1.111   1_556  S
C1009      H1015   1.087   1_655  S
C1009      C1434   1.358       .  D
C1010      C1567   1.468   1_656  S
C1010      C1433   1.359       .  D
C1011      H1016   1.085       .  S
C1011      C1436   1.365       .  D
C1012      C1435   1.365       .  D
C1017      C1018   1.516       .  S
C1017      C1023   1.512       .  S
C1017      C1021   1.525       .  S
C1017      C1251   1.501       .  S
C1018      H1025   1.083       .  S
C1018      C1019   1.370       .  D
C1019      C1020   1.571       .  S
C1020      C1024   1.590       .  S
C1020      C1022   1.560       .  S
C1020      H1026   1.110       .  S
C1021      C1022   1.361       .  D
C1023      H1028   1.088       .  S
C1023      C1024   1.353       .  D
Zr1029     O1030   2.446       .  S
Zr1029     O1032   2.442       .  S
Zr1029     O1037   2.366       .  S
Zr1029     O1038   2.388       .  S
Zr1029     O1039   2.406       .  S
Zr1029     O1040   2.401       .  S
O1030      H1094   0.991       .  S
O1031      C1051   1.277       .  A
O1032      C1053   1.283       .  A
O1033     Zr1043   2.530       .  S
O1034     Zr1042   2.418       .  S
O1034      C1053   1.279       .  A
O1035      C1052   1.280       .  A
O1036     Zr1044   2.391       .  S
O1037     Zr1042   2.394       .  S
O1037     Zr1044   2.378       .  S
O1038     Zr1043   2.407       .  S
O1038     Zr1044   2.382       .  S
O1038      H1073   0.966       .  S
O1039     Zr1042   2.393       .  S
O1039     Zr1059   2.421       .  S
O1039      H1076   0.964       .  S
O1040     Zr1043   2.386       .  S
O1040     Zr1059   2.365       .  S
Zr1041     O1066   2.440       .  S
Zr1041     O1060   2.478       .  S
Zr1041     O1068   2.480       .  S
Zr1041     O1056   2.471       .  S
Zr1041     O1047   2.400       .  S
Zr1041     O1048   2.435       .  S
Zr1041     O1049   2.392       .  S
Zr1041     O1050   2.426       .  S
Zr1042     O1061   2.438       .  S
Zr1042     O1054   2.435       .  S
Zr1042     O1055   2.415       .  S
Zr1042     O1048   2.401       .  S
Zr1042     O1049   2.396       .  S
Zr1043     O1045   2.436       .  S
Zr1043     O1067   2.436       .  S
Zr1043     O1069   2.492       .  S
Zr1043     O1047   2.388       .  S
Zr1043     O1050   2.418       .  S
Zr1044     O1070   2.435       .  S
Zr1044     O1071   2.435       .  S
Zr1044     O1046   2.436       .  S
Zr1044     O1047   2.364       .  S
Zr1044     O1048   2.379       .  S
O1045      H1082   0.990       .  S
O1046      H1077   0.990       .  S
O1046      H1091   0.990       .  S
O1048      H1074   0.966       .  S
O1049     Zr1059   2.389       .  S
O1050     Zr1059   2.399       .  S
O1050      H1075   0.966       .  S
C1051      C1102   1.465       .  S
C1052      C1109   1.511       .  S
O1054      H1090   0.990       .  S
O1055      C1057   1.274       .  A
O1056      C1057   1.291       .  A
C1057      C1097   1.477       .  S
O1058     Zr1059   2.435       .  S
O1058      H1087   0.991       .  S
Zr1059     O1062   2.438       .  S
Zr1059     O1063   2.448       .  S
Zr1059     O1064   2.424       .  S
O1060      C1065   1.283       .  A
O1061      H1078   0.990       .  S
O1061      H1093   0.990       .  S
O1062      H1079   0.991       .  S
O1063      H1083   0.989       .  S
O1063      H1092   0.990       .  S
O1064      C1065   1.269       .  A
C1065      C1112   1.479       .  S
O1066      H1085   0.991       .  S
O1066      H1089   0.990       .  S
O1067      H1081   0.990       .  S
O1068      C1072   1.294       .  A
O1069      C1072   1.299       .  A
O1070      H1080   0.990       .  S
O1071      H1084   0.990       .  S
C1072      C1204   1.496       .  S
C1095      C1096   1.543       .  S
C1095      C1101   1.534       .  S
C1095      C1099   1.525       .  S
C1095      C1232   1.507       .  S
C1096      H1103   1.085       .  S
C1096      C1097   1.367       .  D
C1097      C1098   1.544       .  S
C1098      C1102   1.532       .  S
C1098      C1100   1.542       .  S
C1098      H1104   1.111       .  S
C1099      H1105   1.087       .  S
C1099      C1100   1.362       .  D
C1101      H1106   1.085       .  S
C1101      C1102   1.361       .  D
C1107      C1108   1.520       .  S
C1107      C1113   1.509       .  S
C1107      C1111   1.517       .  S
C1107      C1235   1.506       .  S
C1108      H1115   1.081       .  S
C1108      C1109   1.382       .  D
C1109      C1110   1.565       .  S
C1110      C1114   1.585       .  S
C1110      C1112   1.561       .  S
C1110      H1116   1.110       .  S
C1111      H1117   1.083       .  S
C1111      C1112   1.360       .  D
C1113      H1118   1.089       .  S
C1113      C1114   1.351       .  D
C1114      C1162   1.489       .  S
Zr1119     O1120   2.443       .  S
Zr1119     O1545   2.427       .  S
Zr1119     O1122   2.442       .  S
Zr1119     O1125   2.403       .  S
Zr1119     O1552   2.386       .  S
O1120      H1176   0.990       .  S
O1121     Zr1543   2.427       .  S
O1121      C1141   1.279       .  A
O1123      C1142   1.300       .  A
O1124     Zr1132   2.410       .  S
O1124      C1567   1.276       .  A
O1125      C1142   1.281       .  A
O1126      C1141   1.281       .  A
O1127     Zr1132   2.395       .  S
O1127     Zr1134   2.374       .  S
O1128     Zr1543   2.385       .  S
O1128      H1163   0.966       .  S
O1129     Zr1556   2.392       .  S
O1129     Zr1149   2.423       .  S
O1129      H1166   0.964       .  S
O1130     Zr1557   2.386       .  S
O1130     Zr1149   2.362       .  S
Zr1131     O1156   2.439       .  S
Zr1131     O1150   2.484       .  S
Zr1131     O1158   2.475       .  S
Zr1131     O1146   2.466       .  S
Zr1131     O1137   2.406       .  S
Zr1131     O1138   2.436       .  S
Zr1131     O1139   2.388       .  S
Zr1131     O1140   2.422       .  S
Zr1132     O1575   2.436   1_554  S
Zr1132     O1144   2.434       .  S
Zr1132     O1145   2.409       .  S
Zr1132     O1553   2.390   1_554  S
Zr1132     O1138   2.402       .  S
Zr1132     O1139   2.394       .  S
Zr1133     O1559   2.436       .  S
Zr1133     O1159   2.481       .  S
Zr1133     O1554   2.385       .  S
Zr1133     O1137   2.390       .  S
Zr1133     O1140   2.422       .  S
Zr1134     O1161   2.436       .  S
Zr1134     O1136   2.436       .  S
Zr1134     O1137   2.371       .  S
Zr1134     O1138   2.387       .  S
O1135     Zr1557   2.437       .  S
O1135      H1172   0.990   1_565  S
O1136      H1167   0.990       .  S
O1136      H1181   0.990       .  S
O1138      H1164   0.966       .  S
O1139     Zr1573   2.385   1_554  S
O1140     Zr1573   2.393   1_554  S
O1140      H1165   0.966       .  S
C1141      C1192   1.475       .  S
C1142      C1199   1.516       .  S
C1143      O1548   1.276       .  A
C1143      C1434   1.467   1_455  S
O1144      H1180   0.990       .  S
O1145      C1147   1.271       .  A
O1146      C1147   1.290       .  A
C1147      C1187   1.477       .  S
O1148     Zr1149   2.439       .  S
O1148      H1177   0.991       .  S
Zr1149     O1152   2.441       .  S
Zr1149     O1153   2.435       .  S
Zr1149     O1154   2.422       .  S
Zr1149     O1563   2.389       .  S
Zr1149     O1564   2.393       .  S
O1150      C1579   1.284   1_554  A
O1151     Zr1556   2.437       .  S
O1151      H1168   0.990       .  S
O1151      H1183   0.990       .  S
O1152      H1169   0.990       .  S
O1153      H1173   0.990       .  S
O1153      H1182   0.990       .  S
O1154      C1155   1.268       .  A
C1155      O1574   1.285       .  A
C1155      C1202   1.486       .  S
O1156      H1175   0.991       .  S
O1156      H1179   0.990       .  S
O1157      H1171   0.990       .  S
O1157      H1178   0.990       .  S
O1158      C1162   1.294       .  A
O1159      C1162   1.296       .  A
O1160      H1170   0.990       .  S
O1161      H1174   0.990       .  S
C1185      C1186   1.537       .  S
C1185      C1191   1.536       .  S
C1185      C1189   1.526       .  S
C1185      C1216   1.509       .  S
C1186      H1193   1.085       .  S
C1186      C1187   1.362       .  D
C1187      C1188   1.548       .  S
C1188      C1192   1.538       .  S
C1188      C1190   1.553       .  S
C1188      H1194   1.111       .  S
C1189      H1195   1.087   1_455  S
C1189      C1190   1.363       .  D
C1191      H1196   1.085       .  S
C1191      C1192   1.364       .  D
C1197      C1198   1.521       .  S
C1197      C1203   1.511       .  S
C1197      C1201   1.518       .  S
C1197      C1219   1.508       .  S
C1198      H1205   1.080       .  S
C1198      C1199   1.380       .  D
C1199      C1200   1.567       .  S
C1200      C1204   1.589       .  S
C1200      C1202   1.567       .  S
C1200      H1206   1.110       .  S
C1201      H1207   1.086       .  S
C1201      C1202   1.363       .  D
C1203      H1208   1.089       .  S
C1203      C1204   1.353       .  D
C1209      S1215   1.697       .  A
C1209      C1214   1.386       .  A
C1209      C1210   1.396       .  A
C1210      C1211   1.398       .  A
C1210      H1221   1.083       .  S
C1211      C1220   1.365       .  A
C1211      C1212   1.386       .  A
C1212      S1218   1.698       .  A
C1212      C1213   1.398       .  A
C1213      C1214   1.398       .  A
C1213      H1222   1.083       .  S
C1214      C1217   1.365       .  A
S1215      C1216   1.727       .  A
C1216      C1217   1.386       .  A
C1217      H1223   1.083       .  S
S1218      C1219   1.726       .  A
C1219      C1220   1.389       .  A
C1220      H1224   1.081       .  S
C1225      S1231   1.694       .  A
C1225      C1230   1.387       .  A
C1225      C1650   1.396       .  A
C1226      C1649   1.397       .  A
C1226      C1227   1.398       .  A
C1226      H1237   1.083       .  S
C1227      C1236   1.367       .  A
C1227      C1228   1.387       .  A
C1228      S1234   1.693       .  A
C1228      C1653   1.397       .  A
C1229      C1652   1.396       .  A
C1229      C1230   1.396       .  A
C1229      H1238   1.083       .  S
C1230      C1233   1.365       .  A
S1231      C1232   1.728       .  A
C1232      C1233   1.384       .  A
C1233      H1239   1.083       .  S
S1234      C1235   1.725       .  A
C1235      C1236   1.387       .  A
C1236      H1240   1.081       .  S
C1241      S1247   1.698   1_565  A
C1241      C1246   1.387       .  A
C1241      C1242   1.392       .  A
C1242      C1243   1.396       .  A
C1242      H1253   1.084   1_565  S
C1243      C1252   1.355       .  A
C1243      C1244   1.387       .  A
C1244      S1250   1.703       .  A
C1244      C1245   1.396       .  A
C1245      C1246   1.399       .  A
C1245      H1254   1.083       .  S
C1246      C1249   1.360       .  A
S1247      C1248   1.722   1_545  A
C1248      C1249   1.385       .  A
C1249      H1255   1.082       .  S
S1250      C1251   1.723       .  A
C1251      C1252   1.382       .  A
C1252      H1256   1.079   1_565  S
C1257      S1263   1.698   1_554  A
C1257      C1262   1.386       .  A
C1257      C1258   1.398       .  A
C1258      C1259   1.398       .  A
C1258      H1269   1.083       .  S
C1259      C1268   1.366       .  A
C1259      C1260   1.387       .  A
C1260      S1266   1.696       .  A
C1260      C1261   1.396       .  A
C1261      C1262   1.398       .  A
C1261      H1270   1.083       .  S
C1262      C1265   1.365   1_554  A
S1263      C1688   1.725       .  A
C1264      S1687   1.726       .  A
C1264      C1689   1.388       .  A
C1265      C1688   1.389       .  A
C1265      H1695   1.081       .  S
S1266      C1267   1.725       .  A
C1267      C1268   1.385       .  A
C1268      H1272   1.083       .  S
H1271      C1689   1.081       .  S
Zr1273     O1274   2.444       .  S
Zr1273     O1275   2.412       .  S
Zr1273     O1276   2.449       .  S
Zr1273     O1279   2.400       .  S
Zr1273     O1281   2.369       .  S
Zr1273     O1282   2.389       .  S
Zr1273     O1283   2.401       .  S
Zr1273     O1284   2.397       .  S
O1274      H1330   0.990       .  S
O1274      H1338   0.990       .  S
O1275      C1295   1.276       .  A
O1276      C1297   1.285       .  A
O1277     Zr1287   2.537       .  S
O1277      C1296   1.300       .  A
O1278     Zr1286   2.420       .  S
O1278      C1297   1.280       .  A
O1279      C1296   1.281       .  A
O1280     Zr1288   2.398       .  S
O1280      C1295   1.278       .  A
O1281     Zr1286   2.393       .  S
O1281     Zr1288   2.379       .  S
O1282     Zr1287   2.404       .  S
O1282     Zr1288   2.383       .  S
O1282      H1317   0.966       .  S
O1283     Zr1286   2.394       .  S
O1283     Zr1303   2.422       .  S
O1283      H1320   0.964       .  S
O1284     Zr1287   2.381       .  S
O1284     Zr1303   2.362       .  S
Zr1285     O1310   2.441   1_565  S
Zr1285     O1312   2.490       .  S
Zr1285     O1291   2.396       .  S
Zr1285     O1292   2.436       .  S
Zr1285     O1293   2.394       .  S
Zr1285     O1294   2.431       .  S
Zr1286     O1305   2.437   1_565  S
Zr1286     O1298   2.435       .  S
Zr1286     O1292   2.406       .  S
Zr1286     O1293   2.395       .  S
Zr1287     O1289   2.436       .  S
Zr1287     O1311   2.437       .  S
Zr1287     O1313   2.481       .  S
Zr1287     O1291   2.389       .  S
Zr1287     O1294   2.421       .  S
Zr1288     O1314   2.434       .  S
Zr1288     O1315   2.436       .  S
Zr1288     O1290   2.437       .  S
Zr1288     O1291   2.362       .  S
Zr1288     O1292   2.379       .  S
O1289      H1326   0.990       .  S
O1290      H1321   0.990       .  S
O1290      H1335   0.990       .  S
O1292      H1318   0.966       .  S
O1293     Zr1303   2.389       .  S
O1294     Zr1303   2.403       .  S
O1294      H1319   0.966       .  S
C1295      C1346   1.465       .  S
C1296      C1353   1.519       .  S
C1297      C1524   1.474       .  S
O1298      H1334   0.990       .  S
O1299      C1301   1.273       .  A
O1300      C1301   1.289       .  A
C1301      C1341   1.476       .  S
O1302     Zr1303   2.437       .  S
O1302      H1331   0.991       .  S
Zr1303     O1306   2.439       .  S
Zr1303     O1307   2.446       .  S
Zr1303     O1308   2.421       .  S
O1304      C1309   1.283       .  A
O1305      H1322   0.990       .  S
O1305      H1337   0.990       .  S
O1306      H1323   0.990       .  S
O1307      H1327   0.989       .  S
O1307      H1336   0.991       .  S
C1309      C1356   1.480       .  S
O1310      H1329   0.991       .  S
O1310      H1333   0.990       .  S
O1311      H1325   0.990       .  S
O1311      H1332   0.990       .  S
O1312      C1316   1.295       .  A
O1313      C1316   1.297       .  A
O1314      H1324   0.990       .  S
O1315      H1328   0.990       .  S
C1316      C1448   1.498       .  S
C1339      C1340   1.541       .  S
C1339      C1345   1.535       .  S
C1339      C1343   1.526       .  S
C1339      C1691   1.509       .  S
C1340      H1347   1.086       .  S
C1340      C1341   1.367       .  D
C1341      C1342   1.546       .  S
C1342      C1346   1.533       .  S
C1342      C1344   1.546       .  S
C1342      H1348   1.111       .  S
C1343      H1349   1.087       .  S
C1343      C1344   1.362       .  D
C1344      C1477   1.478       .  S
C1345      H1350   1.085       .  S
C1345      C1346   1.360       .  D
C1351      C1352   1.521       .  S
C1351      C1357   1.512       .  S
C1351      C1355   1.518       .  S
C1351      C1688   1.512       .  S
C1352      H1359   1.080       .  S
C1352      C1353   1.380       .  D
C1353      C1354   1.569       .  S
C1354      C1358   1.585       .  S
C1354      C1356   1.562       .  S
C1354      H1360   1.110       .  S
C1355      H1361   1.082       .  S
C1355      C1356   1.362       .  D
C1357      H1362   1.089       .  S
C1357      C1358   1.354       .  D
Zr1363     O1364   2.442       .  S
Zr1363     O1365   2.416       .  S
Zr1363     O1366   2.456       .  S
Zr1363     O1369   2.413       .  S
Zr1363     O1371   2.362       .  S
Zr1363     O1372   2.389       .  S
Zr1363     O1373   2.405       .  S
Zr1363     O1374   2.386       .  S
O1364      H1420   0.990       .  S
O1364      H1428   0.990       .  S
O1365      C1385   1.278       .  A
O1366      C1387   1.287       .  A
O1367     Zr1377   2.510       .  S
O1367      C1386   1.295       .  A
O1368     Zr1376   2.413       .  S
O1368      C1387   1.278       .  A
O1369      C1386   1.286       .  A
O1370     Zr1378   2.413       .  S
O1370      C1385   1.280       .  A
O1371     Zr1376   2.392       .  S
O1371     Zr1378   2.373       .  S
O1372     Zr1377   2.416       .  S
O1372     Zr1378   2.383       .  S
O1372      H1407   0.966       .  S
O1373     Zr1376   2.394       .  S
O1373     Zr1393   2.416       .  S
O1373      H1410   0.965       .  S
O1374     Zr1377   2.375       .  S
O1374     Zr1393   2.353       .  S
Zr1375     O1394   2.496       .  S
Zr1375     O1402   2.487       .  S
Zr1375     O1390   2.454       .  S
Zr1375     O1381   2.402       .  S
Zr1375     O1382   2.439       .  S
Zr1375     O1383   2.385       .  S
Zr1375     O1384   2.409       .  S
Zr1376     O1395   2.437       .  S
Zr1376     O1388   2.434       .  S
Zr1376     O1389   2.414       .  S
Zr1376     O1382   2.402       .  S
Zr1376     O1383   2.392       .  S
Zr1377     O1379   2.436       .  S
Zr1377     O1401   2.439       .  S
Zr1377     O1403   2.473       .  S
Zr1377     O1381   2.386       .  S
Zr1377     O1384   2.420       .  S
Zr1378     O1381   2.381       .  S
Zr1378     O1382   2.387       .  S
O1379      H1416   0.990       .  S
O1380      H1411   0.990       .  S
O1380      H1425   0.990       .  S
O1382      H1408   0.964       .  S
O1383     Zr1393   2.378       .  S
O1384     Zr1393   2.389       .  S
O1384      H1409   0.966       .  S
C1385      C1436   1.471       .  S
C1386      C1443   1.510       .  S
C1387      C1614   1.474   1_655  S
O1388      H1424   0.990       .  S
O1389      C1391   1.273       .  A
O1390      C1391   1.288       .  A
O1392     Zr1393   2.438       .  S
O1392      H1421   0.990       .  S
Zr1393     O1396   2.426       .  S
Zr1393     O1397   2.439       .  S
Zr1393     O1398   2.418       .  S
O1394      C1399   1.291       .  A
O1395      H1412   0.990       .  S
O1395      H1427   0.990       .  S
O1396      H1413   0.990       .  S
O1397      H1417   0.990       .  S
O1397      H1426   0.990       .  S
O1398      C1399   1.275       .  A
O1400      H1419   0.990       .  S
O1400      H1423   0.990   1_556  S
O1401      H1415   0.990       .  S
O1401      H1422   0.990       .  S
O1402      C1406   1.295       .  A
O1403      C1406   1.295       .  A
O1404      H1414   0.990       .  S
O1405      H1418   0.990       .  S
C1429      C1430   1.537       .  S
C1429      C1435   1.538       .  S
C1429      C1433   1.523       .  S
C1429      C1672   1.503       .  S
C1431      C1432   1.539       .  S
C1432      C1436   1.538       .  S
C1432      C1434   1.543       .  S
C1432      H1438   1.111       .  S
C1433      H1439   1.087   1_655  S
C1435      H1440   1.085       .  S
C1441      C1442   1.513       .  S
C1441      C1447   1.511       .  S
C1441      C1445   1.522       .  S
C1441      C1675   1.504       .  S
C1442      H1449   1.085       .  S
C1442      C1443   1.377       .  D
C1443      C1444   1.571       .  S
C1444      C1448   1.590       .  S
C1444      C1446   1.557       .  S
C1444      H1450   1.110       .  S
C1445      C1446   1.362       .  D
C1447      H1452   1.088       .  S
C1447      C1448   1.355       .  D
Zr1453     O1454   2.444       .  S
Zr1453     O1456   2.458       .  S
Zr1453     O1461   2.364       .  S
Zr1453     O1462   2.393       .  S
Zr1453     O1463   2.398       .  S
Zr1453     O1464   2.398       .  S
O1454      H1518   0.991       .  S
O1455      C1475   1.279       .  A
O1456      C1477   1.286       .  A
O1457     Zr1467   2.524       .  S
O1458     Zr1466   2.423       .  S
O1458      C1477   1.279       .  A
O1459      C1476   1.280   1_545  A
O1460     Zr1468   2.390       .  S
O1461     Zr1466   2.391       .  S
O1461     Zr1468   2.376       .  S
O1462     Zr1467   2.407       .  S
O1462     Zr1468   2.384       .  S
O1462      H1497   0.966       .  S
O1463     Zr1466   2.396       .  S
O1463     Zr1483   2.422       .  S
O1463      H1500   0.964       .  S
O1464     Zr1467   2.387       .  S
O1464     Zr1483   2.361       .  S
Zr1465     O1490   2.438       .  S
Zr1465     O1484   2.476       .  S
Zr1465     O1492   2.472       .  S
Zr1465     O1480   2.465       .  S
Zr1465     O1471   2.400       .  S
Zr1465     O1472   2.434       .  S
Zr1465     O1473   2.391       .  S
Zr1465     O1474   2.424       .  S
Zr1466     O1485   2.437       .  S
Zr1466     O1478   2.435       .  S
Zr1466     O1479   2.408       .  S
Zr1466     O1472   2.406       .  S
Zr1466     O1473   2.397       .  S
Zr1467     O1469   2.435       .  S
Zr1467     O1491   2.438       .  S
Zr1467     O1493   2.492       .  S
Zr1467     O1471   2.386       .  S
Zr1467     O1474   2.419       .  S
Zr1468     O1494   2.438       .  S
Zr1468     O1495   2.437       .  S
Zr1468     O1470   2.437       .  S
Zr1468     O1471   2.369       .  S
Zr1468     O1472   2.380       .  S
O1469      H1506   0.990       .  S
O1470      H1501   0.990       .  S
O1470      H1515   0.990       .  S
O1472      H1498   0.966       .  S
O1473     Zr1483   2.384       .  S
O1474     Zr1483   2.404       .  S
O1474      H1499   0.966       .  S
C1475      C1526   1.468       .  S
C1476      C1533   1.511       .  S
O1478      H1514   0.989       .  S
O1479      C1481   1.271       .  A
O1480      C1481   1.290       .  A
C1481      C1521   1.475       .  S
O1482     Zr1483   2.438       .  S
O1482      H1511   0.991       .  S
Zr1483     O1486   2.439       .  S
Zr1483     O1487   2.447       .  S
Zr1483     O1488   2.427       .  S
O1484      C1489   1.283       .  A
O1485      H1502   0.990       .  S
O1485      H1517   0.990       .  S
O1486      H1503   0.990       .  S
O1487      H1507   0.989       .  S
O1487      H1516   0.990       .  S
O1488      C1489   1.271       .  A
C1489      C1536   1.481       .  S
O1490      H1509   0.990       .  S
O1490      H1513   0.991       .  S
O1491      H1505   0.990       .  S
O1492      C1496   1.292       .  A
O1493      C1496   1.299       .  A
O1494      H1504   0.990       .  S
O1495      H1508   0.990       .  S
C1496      C1628   1.495       .  S
C1519      C1520   1.539       .  S
C1519      C1525   1.537       .  S
C1519      C1523   1.524       .  S
C1519      C1656   1.507       .  S
C1520      H1527   1.085       .  S
C1520      C1521   1.365       .  D
C1521      C1522   1.546       .  S
C1522      C1526   1.533       .  S
C1522      C1524   1.547       .  S
C1522      H1528   1.111       .  S
C1523      H1529   1.087       .  S
C1523      C1524   1.362       .  D
C1525      H1530   1.085       .  S
C1525      C1526   1.362       .  D
C1531      C1532   1.516       .  S
C1531      C1537   1.507       .  S
C1531      C1535   1.517       .  S
C1531      C1659   1.504       .  S
C1532      H1539   1.081       .  S
C1532      C1533   1.380       .  D
C1533      C1534   1.566       .  S
C1534      C1538   1.584       .  S
C1534      C1536   1.563       .  S
C1534      H1540   1.110       .  S
C1535      H1541   1.082       .  S
C1535      C1536   1.360       .  D
C1537      H1542   1.089       .  S
C1537      C1538   1.352       .  D
C1538      C1586   1.485       .  S
Zr1543     O1544   2.442   1_554  S
Zr1543     O1546   2.443   1_554  S
Zr1543     O1549   2.406   1_554  S
O1544      H1600   0.990       .  S
O1545      C1565   1.280       .  A
O1547      C1566   1.300   1_554  A
O1548     Zr1556   2.407       .  S
O1549      C1566   1.282       .  A
O1550      C1565   1.279       .  A
O1551     Zr1556   2.394       .  S
O1551     Zr1558   2.372       .  S
O1552      H1587   0.966       .  S
O1553     Zr1573   2.422       .  S
O1553      H1590   0.964       .  S
O1554     Zr1573   2.362   1_554  S
Zr1555     O1580   2.439       .  S
Zr1555     O1574   2.488       .  S
Zr1555     O1582   2.472       .  S
Zr1555     O1570   2.463       .  S
Zr1555     O1561   2.401       .  S
Zr1555     O1562   2.433       .  S
Zr1555     O1563   2.388       .  S
Zr1555     O1564   2.424       .  S
Zr1556     O1568   2.435       .  S
Zr1556     O1569   2.409       .  S
Zr1556     O1562   2.400       .  S
Zr1556     O1563   2.392       .  S
Zr1557     O1583   2.476       .  S
Zr1557     O1561   2.389       .  S
Zr1557     O1564   2.421       .  S
Zr1558     O1585   2.434       .  S
Zr1558     O1560   2.437       .  S
Zr1558     O1561   2.367       .  S
Zr1558     O1562   2.385       .  S
O1559      H1596   0.990       .  S
O1560      H1591   0.990       .  S
O1560      H1605   0.990       .  S
O1562      H1588   0.966       .  S
O1564      H1589   0.966       .  S
C1565      C1616   1.473       .  S
C1566      C1623   1.521       .  S
O1568      H1604   0.990       .  S
O1569      C1571   1.272       .  A
O1570      C1571   1.289       .  A
C1571      C1611   1.475       .  S
O1572     Zr1573   2.439       .  S
O1572      H1601   0.991       .  S
Zr1573     O1576   2.441       .  S
Zr1573     O1577   2.436       .  S
Zr1573     O1578   2.425       .  S
O1575      H1592   0.990       .  S
O1575      H1607   0.990       .  S
O1576      H1593   0.990       .  S
O1577      H1597   0.990       .  S
O1577      H1606   0.990       .  S
O1578      C1579   1.269       .  A
C1579      C1626   1.487       .  S
O1580      H1599   0.990       .  S
O1580      H1603   0.990       .  S
O1581      H1595   0.990       .  S
O1581      H1602   0.990       .  S
O1582      C1586   1.293       .  A
O1583      C1586   1.296       .  A
O1584      H1594   0.990       .  S
O1585      H1598   0.990       .  S
C1609      C1610   1.538       .  S
C1609      C1615   1.539       .  S
C1609      C1613   1.524       .  S
C1609      C1640   1.510       .  S
C1610      H1617   1.085       .  S
C1610      C1611   1.364       .  D
C1611      C1612   1.545       .  S
C1612      C1616   1.535       .  S
C1612      C1614   1.549       .  S
C1612      H1618   1.111       .  S
C1613      H1619   1.087   1_455  S
C1613      C1614   1.361       .  D
C1615      H1620   1.085       .  S
C1615      C1616   1.366       .  D
C1621      C1622   1.520       .  S
C1621      C1627   1.512       .  S
C1621      C1625   1.519       .  S
C1621      C1643   1.511       .  S
C1622      H1629   1.080       .  S
C1622      C1623   1.380       .  D
C1623      C1624   1.569       .  S
C1624      C1628   1.589       .  S
C1624      C1626   1.567       .  S
C1624      H1630   1.110       .  S
C1625      H1631   1.085       .  S
C1625      C1626   1.363       .  D
C1627      H1632   1.089       .  S
C1627      C1628   1.354       .  D
C1633      S1639   1.699       .  A
C1633      C1638   1.386       .  A
C1633      C1634   1.398       .  A
C1634      C1635   1.400       .  A
C1634      H1645   1.083       .  S
C1635      C1644   1.367       .  A
C1635      C1636   1.386       .  A
C1636      S1642   1.698       .  A
C1636      C1637   1.398       .  A
C1637      C1638   1.399       .  A
C1637      H1646   1.083       .  S
C1638      C1641   1.366       .  A
S1639      C1640   1.726       .  A
C1640      C1641   1.387       .  A
C1641      H1647   1.083       .  S
S1642      C1643   1.725       .  A
C1643      C1644   1.390       .  A
C1644      H1648   1.081       .  S
C1649      S1655   1.694   1_554  A
C1649      C1654   1.387       .  A
C1650      C1651   1.397       .  A
C1650      H1661   1.084       .  S
C1651      C1660   1.364       .  A
C1651      C1652   1.386       .  A
C1652      S1658   1.693       .  A
C1653      C1654   1.397       .  A
C1653      H1662   1.083       .  S
C1654      C1657   1.365   1_554  A
S1655      C1656   1.726       .  A
C1656      C1657   1.385       .  A
C1657      H1663   1.083       .  S
S1658      C1659   1.723       .  A
C1659      C1660   1.388       .  A
C1660      H1664   1.081       .  S
C1665      S1671   1.698   1_565  A
C1665      C1670   1.387       .  A
C1665      C1666   1.392       .  A
C1666      C1667   1.396       .  A
C1666      H1677   1.084   1_565  S
C1667      C1676   1.357       .  A
C1667      C1668   1.387       .  A
C1668      S1674   1.703       .  A
C1668      C1669   1.397       .  A
C1669      C1670   1.400       .  A
C1669      H1678   1.083       .  S
C1670      C1673   1.362       .  A
S1671      C1672   1.721   1_545  A
C1672      C1673   1.387       .  A
C1673      H1679   1.082       .  S
S1674      C1675   1.724       .  A
C1675      C1676   1.381       .  A
C1676      H1680   1.079   1_565  S
C1681      S1687   1.700       .  A
C1681      C1686   1.386       .  A
C1681      C1682   1.400       .  A
C1682      C1683   1.400       .  A
C1682      H1693   1.083       .  S
C1683      C1692   1.369       .  A
C1683      C1684   1.387       .  A
C1684      S1690   1.694       .  A
C1684      C1685   1.394       .  A
C1685      C1686   1.396       .  A
C1685      H1694   1.084       .  S
C1686      C1689   1.364       .  A
S1690      C1691   1.726       .  A
C1691      C1692   1.386       .  A
C1692      H1696   1.083       .  S
