geometry optimzed in LAMMPS
_audit_creation_date              2020-11-30 
_audit_creation_method            'lammps2cif' 
_symmetry_space_group_name_H-M    'P1' 
_symmetry_Int_Tables_number       1 
_symmetry_cell_setting            triclinic 
loop_ 
_symmetry_equiv_pos_as_xyz 
  x,y,z 
_cell_length_a                    35.06445318 
_cell_length_b                    34.75517943494636 
_cell_length_c                    34.678780321572376 
_cell_angle_alpha                 90.36919578297096 
_cell_angle_beta                  90.06345452835079 
_cell_angle_gamma                 88.86235918654523 
loop_ 
_atom_site_label 
_atom_site_type_symbol 
_atom_site_fract_x 
_atom_site_fract_y 
_atom_site_fract_z 
_atom_site_charge 
C1          C  0.68671073  0.86661867  0.12930004     0.85900
C2          C  0.68858778  0.85358125  0.17188997    -0.54400
C3          C  0.72433116  0.85036953  0.18657921     0.08800
C4          C  0.75557792  0.85874578  0.15791319     0.19800
C5          C  0.71079767  0.90440507  0.12883737    -0.55100
C6          C  0.74727351  0.89937581  0.14398723     0.08900
C7          C  0.71247211  0.83650589  0.10830075    -0.54600
C8          C  0.74790553  0.83252561  0.12365715     0.09500
H9          H  0.66386492  0.84989942  0.19013815     0.14000
H10         H  0.78455247  0.85470804  0.17059775    -0.00300
H11         H  0.70011941  0.93176069  0.11796843     0.14300
H12         H  0.70340778  0.81765424  0.08526115     0.14100
C13         C  0.79876305  0.88720331  0.40162459     0.85900
C14         C  0.79487008  0.87617745  0.35843160    -0.54400
C15         C  0.75859022  0.87211229  0.34615139     0.08800
C16         C  0.72879409  0.87751079  0.37713635     0.19800
C17         C  0.77142109  0.92390499  0.40636300    -0.55100
C18         C  0.73428043  0.91795773  0.39306270     0.08900
C19         C  0.77689399  0.85502390  0.42209173    -0.54600
C20         C  0.74073990  0.85088349  0.40940893     0.09500
H21         H  0.81813939  0.87110146  0.33856663     0.14000
H22         H  0.69974290  0.87126917  0.36619567    -0.00300
H23         H  0.78052780  0.95105923  0.41845772     0.14300
H24         H  0.78911798  0.83560068  0.44335337     0.14100
In25       In  0.63029256  0.98191206  0.38305515     1.36900
C26         C  0.69932367  0.94393296  0.39090163     0.77000
O27         O  0.60695578  0.92171716  0.37270672    -0.61500
O28         O  0.57120346  0.96076356  0.40281393    -0.52400
C29         C  0.62316488  0.03389852  0.44261958     0.69600
O30         O  0.62644554  0.04330903  0.40771325    -0.47200
C31         C  0.62518836  0.01659970  0.31166191     0.74300
O32         O  0.67063046  0.93304876  0.37232401    -0.59100
O33         O  0.65504649  0.01313705  0.33168080    -0.49200
O34         O  0.69384292  0.97637851  0.40654021    -0.55500
C35         C  0.57528660  0.92710508  0.38916885     0.84500
O36         O  0.62277956  0.99789626  0.44730056    -0.57400
O37         O  0.59704437  0.00091320  0.32720090    -0.60700
In38       In  0.84561640  0.96196909  0.16859633     1.36900
C39         C  0.86138973  0.00130718  0.23490438     0.77000
O40         O  0.86944663  0.99203188  0.11596035    -0.61500
O41         O  0.82223102  0.01832507  0.14438861    -0.52400
C42         C  0.90023259  0.90514901  0.16820026     0.69600
O43         O  0.87198709  0.90541040  0.19068638    -0.47200
C44         C  0.77865148  0.92744082  0.14931287     0.74300
O45         O  0.87606357  0.00744669  0.20251856    -0.59100
O46         O  0.80816740  0.92623722  0.12864785    -0.49200
O47         O  0.83934724  0.97300629  0.23477493    -0.55500
C48         C  0.84623525  0.02024066  0.11736118     0.84500
O49         O  0.90052126  0.93357481  0.14588151    -0.57400
O50         O  0.78256865  0.94763192  0.17939345    -0.60700
C51         C  0.60500265  0.08047035  0.21894703     0.85900
C52         C  0.64831102  0.08659892  0.21408741    -0.54400
C53         C  0.66859209  0.08613667  0.24728903     0.08800
C54         C  0.64443460  0.08127345  0.28331202     0.19800
C55         C  0.60209915  0.04264304  0.24384821    -0.55100
C56         C  0.62335853  0.04373474  0.27792182     0.08900
C57         C  0.59327226  0.11263806  0.24775712    -0.54600
C58         C  0.61341724  0.11224463  0.28099435     0.09500
H59         H  0.66191801  0.09334966  0.18700384     0.14000
H60         H  0.66118958  0.08292089  0.31050105    -0.00300
H61         H  0.58441551  0.01858180  0.23593711     0.14300
H62         H  0.57178505  0.13490723  0.24274008     0.14100
C63         C  0.87289384  0.06261017  0.32986446     0.85900
C64         C  0.83467042  0.08322011  0.31982185    -0.54400
C65         C  0.82757371  0.08734511  0.28153609     0.08800
C66         C  0.86010872  0.07240557  0.25615945     0.19800
C67         C  0.87156744  0.02421205  0.30594501    -0.55100
C68         C  0.86525621  0.03001069  0.26689583     0.08900
C69         C  0.90293317  0.08674779  0.30866453    -0.54600
C70         C  0.89572765  0.09263137  0.27065371     0.09500
H71         H  0.81334081  0.09138906  0.34102447     0.14000
H72         H  0.85415376  0.07721568  0.22505931    -0.00300
H73         H  0.87524747  0.99588113  0.31849106     0.14300
H74         H  0.92728401  0.09933514  0.32245742     0.14100
C75         C  0.89977774  0.78389342  0.41621261     0.85900
C76         C  0.87290893  0.76268998  0.44380634    -0.54400
C77         C  0.86898097  0.72473620  0.43627337     0.08800
C78         C  0.89214803  0.71020490  0.40183501     0.19800
C79         C  0.93825479  0.75934280  0.41794448    -0.55100
C80         C  0.93336212  0.72017264  0.41049035     0.08900
C81         C  0.88385131  0.77403059  0.37575034    -0.54600
C82         C  0.88057816  0.73580602  0.36830570     0.09500
H83         H  0.85735162  0.77623493  0.46700247     0.14000
H84         H  0.88795352  0.67922444  0.39513083    -0.00300
H85         H  0.96579594  0.77156142  0.42432369     0.14300
H86         H  0.87796357  0.79509087  0.35346455     0.14100
C87         C  0.89353403  0.65645745  0.14903559     0.85900
C88         C  0.86230061  0.68292337  0.13191878    -0.54400
C89         C  0.86021903  0.71860010  0.14745140     0.08800
C90         C  0.88793988  0.72528160  0.18063422     0.19800
C91         C  0.93081950  0.68106114  0.14599528    -0.55100
C92         C  0.92732721  0.71730869  0.16336028     0.08900
C93         C  0.88393889  0.65699218  0.19254851    -0.54600
C94         C  0.88176338  0.69251749  0.20879364     0.09500
H95         H  0.84197702  0.67461662  0.11009181     0.14000
H96         H  0.88453454  0.75417287  0.19429177    -0.00300
H97         H  0.95673602  0.67088097  0.13188389     0.14300
H98         H  0.87900411  0.63158898  0.20969807     0.14100
In99       In  0.99729277  0.61638483  0.39509747     1.36900
C100        C  0.03766667  0.59687041  0.32930222     0.77000
O101        O  0.98820018  0.68275013  0.38463723    -0.61500
O102        O  0.95466168  0.65589626  0.42600976    -0.52400
C103        C  0.94212910  0.56217520  0.39651410     0.69600
O104        O  0.94343258  0.58849104  0.37168340    -0.47200
C105        C  0.05017871  0.61354799  0.45221800     0.74300
O106        O  0.00457847  0.61167772  0.32790045    -0.59100
O107        O  0.04997877  0.63845869  0.42584293    -0.49200
O108        O  0.04877251  0.59133177  0.36334628    -0.55500
C109        C  0.96134716  0.68671692  0.40865220     0.84500
O110        O  0.96913114  0.56317407  0.42055067    -0.57400
O111        O  0.02302925  0.59028964  0.44987346    -0.60700
In112      In  0.98805652  0.82106650  0.17193294     1.36900
C113        C  0.02777163  0.83839651  0.23758160     0.77000
O114        O  0.95928977  0.76839307  0.19703046    -0.61500
O115        O  0.97005316  0.76594076  0.13777568    -0.52400
C116        C  0.93075307  0.87478178  0.16851133     0.69600
O117        O  0.92956248  0.84534879  0.18946831    -0.47200
C118        C  0.04300817  0.82778237  0.11691543     0.74300
O119        O  0.00194049  0.86072814  0.22505621    -0.59100
O120        O  0.04990293  0.82007690  0.15172320    -0.49200
O121        O  0.03130747  0.80799656  0.21767941    -0.55500
C122        C  0.95509618  0.74966305  0.16614874     0.84500
O123        O  0.96071509  0.87641927  0.14850338    -0.57400
O124        O  0.00784327  0.83233448  0.10981203    -0.60700
C125        C  0.08621214  0.86248589  0.33227138     0.85900
C126        C  0.11985200  0.87706927  0.30760830    -0.54400
C127        C  0.12409482  0.85885117  0.27306245     0.08800
C128        C  0.09476500  0.82786138  0.26559923     0.19800
C129        C  0.05041234  0.86583482  0.30474121    -0.55100
C130        C  0.05548398  0.84672097  0.26965152     0.08900
C131        C  0.09462705  0.81859688  0.33431103    -0.54600
C132        C  0.09848011  0.80111586  0.29967636     0.09500
H133        H  0.14147260  0.89628586  0.31838456     0.14000
H134        H  0.09929877  0.81271345  0.23756503    -0.00300
H135        H  0.02372681  0.87988411  0.31299791     0.14300
H136        H  0.09788724  0.80195163  0.36036392     0.14100
C137        C  0.09779664  0.57923845  0.23366227     0.85900
C138        C  0.13095413  0.56338463  0.25889546    -0.54400
C139        C  0.13345453  0.58025612  0.29407246     0.08800
C140        C  0.10354892  0.61150198  0.30193754     0.19800
C141        C  0.06117773  0.57586527  0.25985842    -0.55100
C142        C  0.06507643  0.59294803  0.29608478     0.08900
C143        C  0.10541056  0.62294948  0.23335875    -0.54600
C144        C  0.10706762  0.63948847  0.26886473     0.09500
H145        H  0.15322939  0.54370339  0.24874047     0.14000
H146        H  0.10684889  0.62562455  0.33061495    -0.00300
H147        H  0.03540481  0.56167767  0.25068332     0.14300
H148        H  0.10914782  0.64002589  0.20771108     0.14100
In149      In  0.48304279  0.61675272  0.17303649     1.36900
C150        C  0.44911116  0.61008404  0.24462097     0.77000
O151        O  0.51974532  0.66555957  0.19187091    -0.61500
O152        O  0.49940186  0.66989241  0.13519449    -0.52400
C153        C  0.53771944  0.56112292  0.16755102     0.69600
O154        O  0.54481419  0.59652584  0.16931248    -0.47200
C155        C  0.42970066  0.60749047  0.11685441     0.74300
O156        O  0.44221608  0.63627725  0.22043462    -0.59100
O157        O  0.42385750  0.62716547  0.14700721    -0.49200
O158        O  0.47521788  0.58731387  0.23343324    -0.55500
C159        C  0.52025482  0.68429444  0.16086055     0.84500
O160        O  0.50254608  0.55391775  0.16756173    -0.57400
O161        O  0.46238458  0.59177201  0.11565946    -0.60700
C162        C  0.39426443  0.86065140  0.23034293     0.85900
C163        C  0.36408014  0.88329526  0.25397280    -0.54400
C164        C  0.36070041  0.87214036  0.29100093     0.08800
C165        C  0.38747033  0.83916247  0.30245101     0.19800
C166        C  0.43181869  0.86398969  0.25498916    -0.55100
C167        C  0.42752689  0.85256177  0.29312329     0.08900
C168        C  0.38267602  0.81818072  0.23591962    -0.54600
C169        C  0.37948256  0.80730712  0.27342026     0.09500
H170        H  0.34496363  0.90502521  0.24249473     0.14000
H171        H  0.38390112  0.82978247  0.33283474    -0.00300
H172        H  0.45850229  0.87426528  0.24354645     0.14300
H173        H  0.37860579  0.79777104  0.21252719     0.14100
C174        C  0.39598922  0.58786700  0.34332301     0.85900
C175        C  0.36617591  0.56705658  0.31848049    -0.54400
C176        C  0.35933088  0.58333516  0.28366375     0.08800
C177        C  0.38282213  0.61901952  0.27570794     0.19800
C178        C  0.43189564  0.58855968  0.31561915    -0.55100
C179        C  0.42418772  0.60521998  0.27972873     0.08900
C180        C  0.38125607  0.63010561  0.34426293    -0.54600
C181        C  0.37595035  0.64644886  0.30938399     0.09500
H182        H  0.35276982  0.54059473  0.32640760     0.14000
H183        H  0.37597094  0.63248901  0.24747962    -0.00300
H184        H  0.45978180  0.57701130  0.32346373     0.14300
H185        H  0.37720873  0.64708231  0.37033246     0.14100
In186      In  0.49264698  0.83943291  0.39420446     1.36900
C187        C  0.53032117  0.77164056  0.41192765     0.77000
O188        O  0.47904124  0.82349029  0.33097798    -0.61500
O189        O  0.45326022  0.87377398  0.35410499    -0.52400
C190        C  0.43445906  0.83644568  0.44610238     0.69600
O191        O  0.43219319  0.82360910  0.41214915    -0.47200
C192        C  0.54593255  0.89638592  0.39162419     0.74300
O193        O  0.52854891  0.80025845  0.43440158    -0.59100
O194        O  0.51498303  0.89980674  0.40997046    -0.49200
O195        O  0.51172039  0.77702376  0.38115858    -0.55500
C196        C  0.45598529  0.85133923  0.32543811     0.84500
O197        O  0.46620140  0.85128066  0.45361472    -0.57400
O198        O  0.54977657  0.86411074  0.37514431    -0.60700
C199        C  0.59508777  0.67801448  0.42472813     0.85900
C200        C  0.62850455  0.70296533  0.43812056    -0.54400
C201        C  0.62906140  0.73819984  0.42207242     0.08800
C202        C  0.59680961  0.74672269  0.39396467     0.19800
C203        C  0.55834133  0.70395280  0.43238674    -0.55100
C204        C  0.56001438  0.74022103  0.41562694     0.08900
C205        C  0.59950236  0.67843510  0.38030475    -0.54600
C206        C  0.59878192  0.71423021  0.36465642     0.09500
H207        H  0.65172262  0.69293298  0.45647604     0.14000
H208        H  0.59825577  0.77579371  0.38083430    -0.00300
H209        H  0.53358185  0.69414616  0.44794861     0.14300
H210        H  0.60393850  0.65334805  0.36227988     0.14100
C211        C  0.57899612  0.77856404  0.14116551     0.85900
C212        C  0.61487873  0.75322675  0.13272348    -0.54400
C213        C  0.61660013  0.71983821  0.15244771     0.08800
C214        C  0.58369509  0.71431283  0.17997289     0.19800
C215        C  0.54461125  0.75056962  0.13433339    -0.55100
C216        C  0.54745372  0.71686079  0.15588030     0.08900
C217        C  0.57997027  0.78351146  0.18567963    -0.54600
C218        C  0.58266176  0.75003290  0.20525877     0.09500
H219        H  0.63854420  0.76193159  0.11490224     0.14000
H220        H  0.58702385  0.68723335  0.19667804    -0.00300
H221        H  0.52044429  0.75737395  0.11587872     0.14300
H222        H  0.57858770  0.81060189  0.20113258     0.14100
C223        C  0.79209818  0.56513866  0.15982754     0.85900
C224        C  0.79516976  0.56730554  0.20434974    -0.54400
C225        C  0.76140892  0.57155974  0.22305468     0.08800
C226        C  0.72710792  0.57512626  0.19610492     0.19800
C227        C  0.76228202  0.53284924  0.15181997    -0.55100
C228        C  0.72785178  0.53870191  0.17100116     0.08900
C229        C  0.77004319  0.60285211  0.14979041    -0.54600
C230        C  0.73645713  0.60770453  0.16880672     0.09500
H231        H  0.82160866  0.56771401  0.22036982     0.14000
H232        H  0.69976955  0.58049823  0.21153058    -0.00300
H233        H  0.76777962  0.50846333  0.13280695     0.14300
H234        H  0.78003595  0.62441500  0.12988270     0.14100
C235        C  0.70185956  0.58224314  0.44091805     0.85900
C236        C  0.70487078  0.59998436  0.40033167    -0.54400
C237        C  0.74064122  0.60103110  0.38545368     0.08800
C238        C  0.77126516  0.58762832  0.41371793     0.19800
C239        C  0.72459930  0.54269652  0.43736856    -0.55100
C240        C  0.76129479  0.54637818  0.42269876     0.08900
C241        C  0.72808930  0.60797064  0.46498003    -0.54600
C242        C  0.76409930  0.61031837  0.45104055     0.09500
H243        H  0.68032537  0.60716647  0.38244896     0.14000
H244        H  0.80059386  0.59078660  0.40219292    -0.00300
H245        H  0.71255085  0.51513188  0.44448614     0.14300
H246        H  0.71892881  0.62620846  0.48864873     0.14100
In247      In  0.85759460  0.47737289  0.39442346     1.36900
C248        C  0.87356207  0.43967686  0.32688058     0.77000
O249        O  0.87561957  0.44657295  0.44921346    -0.61500
O250        O  0.83713910  0.41802586  0.41217845    -0.52400
C251        C  0.91179863  0.53266113  0.39690765     0.69600
O252        O  0.88470535  0.53249158  0.37306729    -0.47200
C253        C  0.79107399  0.51652617  0.41251292     0.74300
O254        O  0.89805743  0.44466622  0.35294846    -0.59100
O255        O  0.80975618  0.49725100  0.43687895    -0.49200
O256        O  0.84146308  0.45491618  0.33477591    -0.55500
C257        C  0.85551204  0.41727561  0.44354607     0.84500
O258        O  0.91079342  0.50524776  0.42054973    -0.57400
O259        O  0.80530188  0.51434479  0.37914541    -0.60700
In260      In  0.62461841  0.47716086  0.17246010     1.36900
C261        C  0.61880150  0.44083559  0.24236882     0.77000
O262        O  0.61206696  0.46157503  0.10919793    -0.61500
O263        O  0.63107222  0.41733994  0.14619840    -0.52400
C264        C  0.56823758  0.53096598  0.16719099     0.69600
O265        O  0.60314432  0.53890078  0.16811835    -0.47200
C266        C  0.69234260  0.51499874  0.16989848     0.74300
O267        O  0.59074163  0.45845847  0.22765408    -0.59100
O268        O  0.68591652  0.48695661  0.14773918    -0.49200
O269        O  0.64852821  0.44332481  0.22225668    -0.55500
C270        C  0.62116352  0.42646702  0.11252085     0.84500
O271        O  0.56189448  0.49531804  0.16740156    -0.57400
O272        O  0.66477748  0.52263460  0.19214691    -0.60700
C273        C  0.60551917  0.38461833  0.34061770     0.85900
C274        C  0.64822930  0.39222656  0.34912428    -0.54400
C275        C  0.67074895  0.39193481  0.31720704     0.08800
C276        C  0.64955043  0.38478357  0.27971161     0.19800
C277        C  0.59440317  0.41612595  0.30968455    -0.55100
C278        C  0.61852295  0.41592978  0.27775772     0.08900
C279        C  0.60680594  0.34665977  0.31705563    -0.54600
C280        C  0.62919682  0.34735886  0.28530225     0.09500
H281        H  0.66028576  0.39657331  0.37745996     0.14000
H282        H  0.66819970  0.38358527  0.25386581    -0.00300
H283        H  0.57060963  0.43629238  0.31298242     0.14300
H284        H  0.59052386  0.32139026  0.32393664     0.14100
C285        C  0.88133807  0.37640171  0.23265581     0.85900
C286        C  0.83774392  0.37176528  0.23803412    -0.54400
C287        C  0.82600241  0.37184951  0.27548747     0.08800
C288        C  0.85841342  0.37224709  0.30444351     0.19800
C289        C  0.89050071  0.41277838  0.25815185    -0.55100
C290        C  0.87796159  0.40973552  0.29607631     0.08900
C291        C  0.89802989  0.34210734  0.25536075    -0.54600
C292        C  0.88575931  0.33996780  0.29209344     0.09500
H293        H  0.81743756  0.36884514  0.21485404     0.14000
H294        H  0.84888140  0.36980394  0.33490107    -0.00300
H295        H  0.90298647  0.43866416  0.24679905     0.14300
H296        H  0.91535483  0.31902831  0.24277798     0.14100
C297        C  0.88080968  0.09223403  0.72648498     0.85900
C298        C  0.88349948  0.13591993  0.71878287    -0.54400
C299        C  0.88223694  0.15808745  0.75095336     0.08800
C300        C  0.87746799  0.13596455  0.78833507     0.19800
C301        C  0.91329297  0.08379847  0.75691330    -0.55100
C302        C  0.91118916  0.10731991  0.78949636     0.08900
C303        C  0.84354251  0.08932320  0.75009251    -0.54600
C304        C  0.84217879  0.11173172  0.78228295     0.09500
H305        H  0.88515484  0.14921847  0.69070083     0.14000
H306        H  0.87510870  0.15494765  0.81415921    -0.00300
H307        H  0.93553825  0.06203246  0.75279659     0.14300
H308        H  0.82000974  0.07094808  0.74240646     0.14100
C309        C  0.88742167  0.37336240  0.81810475     0.85900
C310        C  0.87274735  0.33196874  0.81297011    -0.54400
C311        C  0.87050909  0.31963446  0.77575930     0.08800
C312        C  0.88169206  0.34951457  0.74637065     0.19800
C313        C  0.92616410  0.37241034  0.79495972    -0.55100
C314        C  0.92243319  0.35933236  0.75706826     0.08900
C315        C  0.85979722  0.39723017  0.79283500    -0.54600
C316        C  0.85729749  0.38525497  0.75575478     0.09500
H317        H  0.86787337  0.31231765  0.83658517     0.14000
H318        H  0.87844622  0.33891193  0.71623909    -0.00300
H319        H  0.95340830  0.37962290  0.80765394     0.14300
H320        H  0.84052577  0.41945132  0.80353968     0.14100
In321      In  0.99184353  0.33036007  0.66134256     1.36900
C322        C  0.95235273  0.35009274  0.72728658     0.77000
O323        O  0.96253613  0.35302141  0.60746109    -0.61500
O324        O  0.93560561  0.30847778  0.63784465    -0.52400
C325        C  0.04942064  0.38141425  0.66260373     0.69600
O326        O  0.04730788  0.35334001  0.68531466    -0.47200
C327        C  0.03131977  0.26346336  0.64426650     0.74300
O328        O  0.96220466  0.31595020  0.71851220    -0.59100
O329        O  0.01888388  0.28582259  0.61854757    -0.49200
O330        O  0.96360905  0.37425814  0.70313743    -0.55500
C331        C  0.93472657  0.33059782  0.60912997     0.84500
O332        O  0.02268917  0.38297449  0.63821113    -0.57400
O333        O  0.02186379  0.27421000  0.67788043    -0.60700
In334      In  0.97778606  0.11614839  0.89165526     1.36900
C335        C  0.93727940  0.10893034  0.82409004     0.77000
O336        O  0.95962760  0.10042772  0.95304852    -0.61500
O337        O  0.91773314  0.12364642  0.91576790    -0.52400
C338        C  0.03262727  0.05978057  0.89650248     0.69600
O339        O  0.99778278  0.05377221  0.90290766    -0.47200
C340        C  0.01668490  0.18414787  0.89731823     0.74300
O341        O  0.93557830  0.13701332  0.84718361    -0.59100
O342        O  0.01515084  0.16265173  0.86796223    -0.49200
O343        O  0.96134294  0.08359033  0.83442720    -0.55500
C344        C  0.92514080  0.11067569  0.94878418     0.84500
O345        O  0.03922744  0.09414435  0.88783969    -0.57400
O346        O  0.99621215  0.17235664  0.92452695    -0.60700
C347        C  0.09874352  0.17273235  0.62557111     0.85900
C348        C  0.10308993  0.17145255  0.67003140    -0.54400
C349        C  0.10131079  0.20649497  0.68758695     0.08800
C350        C  0.09853290  0.24001544  0.65999052     0.19800
C351        C  0.06139389  0.19797229  0.61901287    -0.55100
C352        C  0.06198680  0.23338699  0.63795183     0.08900
C353        C  0.13173850  0.19911880  0.61383704    -0.54600
C354        C  0.13130456  0.23384595  0.63195126     0.09500
H355        H  0.10798082  0.14546552  0.68646069     0.14000
H356        H  0.09900899  0.26870485  0.67439358    -0.00300
H357        H  0.03680343  0.18799739  0.60311028     0.14300
H358        H  0.15616255  0.18972615  0.59675616     0.14100
C359        C  0.07434146  0.28094424  0.90727469     0.85900
C360        C  0.07509659  0.28056864  0.86263896    -0.54400
C361        C  0.07987418  0.24514255  0.84665588     0.08800
C362        C  0.08088532  0.21242834  0.87555825     0.19800
C363        C  0.04052250  0.25315544  0.91680827    -0.55100
C364        C  0.04410595  0.21713003  0.89898961     0.08900
C365        C  0.11063337  0.25762375  0.91852816    -0.54600
C366        C  0.11335116  0.22220607  0.90253210     0.09500
H367        H  0.07291486  0.30556388  0.84432365     0.14000
H368        H  0.08496115  0.18352844  0.86206009    -0.00300
H369        H  0.01597279  0.26167203  0.93408402     0.14300
H370        H  0.13318035  0.26837789  0.93688640     0.14100
C371        C  0.78900042  0.36732352  0.92304874     0.85900
C372        C  0.76587143  0.37917952  0.88697459    -0.54400
C373        C  0.73055911  0.36426753  0.88550020     0.08800
C374        C  0.72040894  0.33914978  0.91942672     0.19800
C375        C  0.76211281  0.37856097  0.95828423    -0.55100
C376        C  0.72584217  0.36287359  0.95559434     0.08900
C377        C  0.78745198  0.32286711  0.92129314    -0.54600
C378        C  0.75173224  0.30863377  0.92144879     0.09500
H379        H  0.77725517  0.39528616  0.86299446     0.14000
H380        H  0.69125929  0.32730438  0.91699290    -0.00300
H381        H  0.77165706  0.39458416  0.98331401     0.14300
H382        H  0.81182536  0.30376693  0.91826274     0.14100
C383        C  0.67799958  0.09115480  0.94582564     0.85900
C384        C  0.70029357  0.08465644  0.90770092    -0.54400
C385        C  0.73380922  0.10334341  0.90573789     0.08800
C386        C  0.74273358  0.12714557  0.94112751     0.19800
C387        C  0.70778159  0.07997973  0.97796922    -0.55100
C388        C  0.74163097  0.09986604  0.97506052     0.08900
C389        C  0.67456400  0.13562620  0.94880489    -0.54600
C390        C  0.70843200  0.15382957  0.94638752     0.09500
H391        H  0.69008004  0.06739923  0.88387814     0.14000
H392        H  0.77020051  0.14237643  0.93823310    -0.00300
H393        H  0.70213650  0.05983500  0.00093498     0.14300
H394        H  0.64833151  0.15204439  0.95070304     0.14100
In395      In  0.62652481  0.34563482  0.02192574     1.36900
C396        C  0.62187890  0.27801089  0.06164689     0.77000
O397        O  0.67358885  0.38611355  0.99771126    -0.61500
O398        O  0.68104010  0.32633031  0.99197635    -0.52400
C399        C  0.57120770  0.34208791  0.96608254     0.69600
O400        O  0.60480388  0.32917379  0.96173028    -0.47200
C401        C  0.62152279  0.39826115  0.08009336     0.74300
O402        O  0.59345534  0.29213635  0.04401280    -0.59100
O403        O  0.63360811  0.36423958  0.08422911    -0.49200
O404        O  0.65153022  0.29740889  0.05729078    -0.55500
C405        C  0.69429388  0.35897935  0.98465100     0.84500
O406        O  0.56585096  0.35786822  0.99860864    -0.57400
O407        O  0.61086477  0.40576388  0.04609387    -0.60700
In408      In  0.84361834  0.10997700  0.03674407     1.36900
C409        C  0.77520383  0.10080859  0.00133648     0.77000
O410        O  0.82981029  0.15665886  0.08037666    -0.61500
O411        O  0.87871657  0.16579346  0.04740911    -0.52400
C412        C  0.84675337  0.05258526  0.08959176     0.69600
O413        O  0.82552442  0.08201962  0.09293206    -0.47200
C414        C  0.89593488  0.10872018  0.97971817     0.74300
O415        O  0.78756916  0.13235472  0.01377204    -0.59100
O416        O  0.86187805  0.12042648  0.97503662    -0.49200
O417        O  0.79756137  0.07273092  0.00751348    -0.55500
C418        C  0.85783371  0.17794848  0.07442165     0.84500
O419        O  0.86786194  0.05306051  0.06018726    -0.57400
O420        O  0.90299062  0.09624104  0.01320626    -0.60700
C421        C  0.88402540  0.27054458  0.13570570     0.85900
C422        C  0.90870008  0.24485235  0.16233056    -0.54400
C423        C  0.89645851  0.20831768  0.16553853     0.08800
C424        C  0.85932682  0.20049621  0.14422907     0.19800
C425        C  0.88105958  0.24643880  0.09692479    -0.55100
C426        C  0.86742925  0.20940297  0.10234091     0.08900
C427        C  0.84380694  0.26760227  0.15362333    -0.54600
C428        C  0.83041447  0.23133616  0.15640558     0.09500
H429        H  0.93287316  0.25434019  0.17894149     0.14000
H430        H  0.84880116  0.17100634  0.14944126    -0.00300
H431        H  0.88766391  0.25786485  0.06873023     0.14300
H432        H  0.82479808  0.29215204  0.15862297     0.14100
C433        C  0.60828265  0.18290866  0.12172219     0.85900
C434        C  0.60249417  0.20802948  0.15829082    -0.54400
C435        C  0.62278884  0.24084337  0.15876536     0.08800
C436        C  0.64821590  0.24591182  0.12376501     0.19800
C437        C  0.59992965  0.21138303  0.08751857    -0.55100
C438        C  0.62151506  0.24448130  0.08888352     0.08900
C439        C  0.65217171  0.17637766  0.12104079    -0.54600
C440        C  0.67248555  0.20915741  0.12207999     0.09500
H441        H  0.58579296  0.19979362  0.18309636     0.14000
H442        H  0.66538529  0.27241958  0.12568501    -0.00300
H443        H  0.57947102  0.20573791  0.06478986     0.14300
H444        H  0.66659736  0.14852945  0.12238471     0.14100
In445      In  0.62199878  0.11572002  0.53395776     1.36900
C446        C  0.61130356  0.18604254  0.49925167     0.77000
O447        O  0.66902412  0.13507692  0.57437067    -0.61500
O448        O  0.67889174  0.08190357  0.54681854    -0.52400
C449        C  0.56861211  0.10757428  0.59084031     0.69600
O450        O  0.60164232  0.11992453  0.59641572    -0.47200
C451        C  0.62116187  0.06266373  0.47502490     0.74300
O452        O  0.64275049  0.16818030  0.50308154    -0.59100
O453        O  0.62581169  0.09817845  0.47018006    -0.49200
O454        O  0.58420472  0.16917416  0.51544089    -0.55500
C455        C  0.69074951  0.10585154  0.57126142     0.84500
O456        O  0.56245384  0.09871826  0.55601051    -0.57400
O457        O  0.61569884  0.05404560  0.50992033    -0.60700
C458        C  0.86368140  0.16176877  0.43461006     0.85900
C459        C  0.88344966  0.18222723  0.40084808    -0.54400
C460        C  0.87490072  0.22017135  0.39821291     0.08800
C461        C  0.84652969  0.23515887  0.42768349     0.19800
C462        C  0.87323336  0.18689622  0.47121497    -0.55100
C463        C  0.86381165  0.22565531  0.46649865     0.08900
C464        C  0.82081061  0.17112553  0.42785806    -0.54600
C465        C  0.81250456  0.20932571  0.42466918     0.09500
H466        H  0.90202161  0.16795245  0.38011282     0.14000
H467        H  0.83878555  0.26616173  0.42402945    -0.00300
H468        H  0.88465731  0.17519459  0.49785096     0.14300
H469        H  0.79815506  0.15041189  0.42769272     0.14100
C470        C  0.59301558  0.28154824  0.43850266     0.85900
C471        C  0.58545037  0.25563158  0.40310728    -0.54400
C472        C  0.60626808  0.22256517  0.40237995     0.08800
C473        C  0.63285700  0.21682621  0.43645601     0.19800
C474        C  0.58602411  0.25382856  0.47385374    -0.55100
C475        C  0.60777572  0.21966481  0.47213478     0.08900
C476        C  0.63693505  0.28602883  0.43765137    -0.54600
C477        C  0.65687735  0.25242276  0.43765149     0.09500
H478        H  0.56690391  0.26287168  0.37907783     0.14000
H479        H  0.65025258  0.18978610  0.43410922    -0.00300
H480        H  0.56678339  0.26079957  0.49745589     0.14300
H481        H  0.65168524  0.31304345  0.43574264     0.14100
In482      In  0.84879251  0.32910307  0.52552497     1.36900
C483        C  0.86331768  0.25835402  0.49413184     0.77000
O484        O  0.81354584  0.35103538  0.57493845    -0.61500
O485        O  0.78201117  0.33124948  0.52757475    -0.52400
C486        C  0.90408481  0.33007549  0.57970020     0.69600
O487        O  0.87678057  0.30699202  0.58054654    -0.47200
C488        C  0.85314142  0.38551469  0.47192598     0.74300
O489        O  0.88439864  0.28684780  0.48958429    -0.59100
O490        O  0.83509934  0.35492642  0.46619695    -0.49200
O491        O  0.83541390  0.26544252  0.51597341    -0.55500
C492        C  0.78100489  0.34395884  0.56168066     0.84500
O493        O  0.90315647  0.35257434  0.55131270    -0.57400
O494        O  0.86873028  0.38711208  0.50458911    -0.60700
C495        C  0.68305899  0.35041898  0.61785102     0.85900
C496        C  0.70324931  0.37723852  0.64683249    -0.54400
C497        C  0.74050106  0.36833967  0.65297678     0.08800
C498        C  0.75524894  0.33364137  0.62990345     0.19800
C499        C  0.70875453  0.35232667  0.58068717    -0.55100
C500        C  0.74712885  0.34422242  0.58796102     0.08900
C501        C  0.69153460  0.30972862  0.63389504    -0.54600
C502        C  0.72898001  0.30030641  0.63872492     0.09500
H503        H  0.69001178  0.40184188  0.66091904     0.14000
H504        H  0.78547648  0.32677418  0.63665174    -0.00300
H505        H  0.69793312  0.35995947  0.55237680     0.14300
H506        H  0.66973261  0.28897440  0.63995146     0.14100
C507        C  0.78264380  0.07565797  0.63137955     0.85900
C508        C  0.75549023  0.05649912  0.65973957    -0.54400
C509        C  0.72170164  0.07515799  0.66430816     0.08800
C510        C  0.71684167  0.11197660  0.64078136     0.19800
C511        C  0.75795482  0.07945144  0.59348231    -0.55100
C512        C  0.72316720  0.09888015  0.59902905     0.08900
C513        C  0.78502388  0.11720702  0.64709155    -0.54600
C514        C  0.75124116  0.13640028  0.65089355     0.09500
H515        H  0.76192706  0.03110457  0.67664839     0.14000
H516        H  0.68907663  0.12713052  0.64585961    -0.00300
H517        H  0.76681358  0.06766193  0.56580248     0.14300
H518        H  0.81160733  0.13157077  0.65315289     0.14100
C519        C  0.58243853  0.06609847  0.84281117     0.85900
C520        C  0.59409729  0.10877462  0.83969522    -0.54400
C521        C  0.59597548  0.12199500  0.80325334     0.08800
C522        C  0.58754107  0.09254853  0.77245686     0.19800
C523        C  0.54404163  0.06481535  0.81877261    -0.55100
C524        C  0.54781052  0.07919528  0.78144459     0.08900
C525        C  0.61170403  0.04462158  0.81681321    -0.54600
C526        C  0.61400868  0.05856672  0.78059995     0.09500
H527        H  0.59840028  0.12805450  0.86399828     0.14000
H528        H  0.59071023  0.10440404  0.74289134    -0.00300
H529        H  0.51719209  0.05512539  0.83036552     0.14300
H530        H  0.63136349  0.02236339  0.82607252     0.14100
C531        C  0.58001340  0.33453295  0.71416785     0.85900
C532        C  0.58536291  0.29025942  0.71780532    -0.54400
C533        C  0.58923347  0.27793076  0.75468600     0.08800
C534        C  0.58767603  0.30938963  0.78497515     0.19800
C535        C  0.54482016  0.34400369  0.74136998    -0.55100
C536        C  0.54934254  0.32980428  0.77866704     0.08900
C537        C  0.61451606  0.35026582  0.73644594    -0.54600
C538        C  0.61762355  0.33773631  0.77307885     0.09500
H539        H  0.58581742  0.26977153  0.69416281     0.14000
H540        H  0.59220080  0.29838122  0.81471881    -0.00300
H541        H  0.51904140  0.35880153  0.73176021     0.14300
H542        H  0.63544487  0.36929997  0.72431354     0.14100
In543      In  0.48482072  0.32701576  0.88145817     1.36900
C544        C  0.54078153  0.33792398  0.93601291     0.77000
O545        O  0.46157303  0.26665347  0.86729567    -0.61500
O546        O  0.45458733  0.28686665  0.92376546    -0.52400
C547        C  0.42928033  0.38288888  0.87737690     0.69600
O548        O  0.46221234  0.38865382  0.89076061    -0.47200
C549        C  0.52217878  0.32918132  0.81220313     0.74300
O550        O  0.50654521  0.34870791  0.94054776    -0.59100
O551        O  0.49926608  0.35580609  0.82228624    -0.49200
O552        O  0.54662264  0.32229140  0.90365593    -0.55500
C553        C  0.44754367  0.26039861  0.90004597     0.84500
O554        O  0.42489778  0.34890462  0.86528713    -0.57400
O555        O  0.52386642  0.30202607  0.83615136    -0.60700
In556      In  0.48686366  0.10521677  0.68008902     1.36900
C557        C  0.45242826  0.17671563  0.67493156     0.77000
O558        O  0.46620280  0.04692573  0.65864822    -0.61500
O559        O  0.42587859  0.08452020  0.68493418    -0.52400
C560        C  0.53979920  0.10502908  0.62247368     0.69600
O561        O  0.54743239  0.11250212  0.65734448    -0.47200
C562        C  0.51951521  0.08694722  0.74997454     0.74300
O563        O  0.48060618  0.16718389  0.65427596    -0.59100
O564        O  0.50896161  0.06187226  0.72620494    -0.49200
O565        O  0.44358507  0.15076507  0.69835271    -0.55500
C566        C  0.43244576  0.05170823  0.67048461     0.84500
O567        O  0.50534042  0.09646742  0.61703195    -0.57400
O568        O  0.51253883  0.12067503  0.73841566    -0.60700
C569        C  0.39969426  0.27482869  0.64830793     0.85900
C570        C  0.38148302  0.27732155  0.68881845    -0.54400
C571        C  0.37622627  0.24331836  0.70648057     0.08800
C572        C  0.38576796  0.20867561  0.68093370     0.19800
C573        C  0.43586269  0.24751868  0.65326079    -0.55100
C574        C  0.42773848  0.21230108  0.67019347     0.08900
C575        C  0.37202497  0.24931463  0.62563380    -0.54600
C576        C  0.36458046  0.21536957  0.64292166     0.09500
H577        H  0.37316788  0.30408257  0.70291292     0.14000
H578        H  0.37871029  0.18092891  0.69470038    -0.00300
H579        H  0.46407338  0.25467051  0.64307599     0.14300
H580        H  0.35978688  0.25642150  0.59793344     0.14100
C581        C  0.38348752  0.17003654  0.91942254     0.85900
C582        C  0.36504692  0.17749052  0.87955193    -0.54400
C583        C  0.36162450  0.21513023  0.86919424     0.08800
C584        C  0.37604462  0.24274713  0.90058608     0.19800
C585        C  0.42219887  0.19216845  0.91718119    -0.55100
C586        C  0.41771627  0.23069283  0.90713375     0.08900
C587        C  0.35856767  0.19470408  0.94711817    -0.54600
C588        C  0.35513340  0.23224295  0.93749869     0.09500
H589        H  0.35854283  0.15459048  0.85942715     0.14000
H590        H  0.37184039  0.27358507  0.89311639    -0.00300
H591        H  0.44987690  0.17866925  0.92232821     0.14300
H592        H  0.34253413  0.18382334  0.97123407     0.14100
In593      In  0.13457068  0.61018854  0.53827960     1.36900
C594        C  0.11543055  0.67896602  0.57318571     0.77000
O595        O  0.12527407  0.54717104  0.55577726    -0.61500
O596        O  0.14283979  0.58575090  0.59896668    -0.52400
C597        C  0.07993973  0.61182674  0.48285813     0.69600
O598        O  0.10751588  0.63457468  0.48390592    -0.47200
C599        C  0.20362764  0.60088088  0.50177028     0.74300
O600        O  0.09392798  0.65038372  0.57185930    -0.59100
O601        O  0.20134899  0.60953356  0.53708354    -0.49200
O602        O  0.14675251  0.67293480  0.55603830    -0.55500
C603        C  0.13414849  0.55163863  0.59077779     0.84500
O604        O  0.08022840  0.58769976  0.51002113    -0.57400
O605        O  0.17153815  0.59565769  0.48656718    -0.60700
C606        C  0.18575447  0.87271924  0.43225700     0.85900
C607        C  0.19092448  0.83048790  0.41822381    -0.54400
C608        C  0.22778837  0.81728042  0.41710287     0.08800
C609        C  0.25659428  0.84753801  0.42817270     0.19800
C610        C  0.20805224  0.87305576  0.47189123    -0.55100
C611        C  0.24554429  0.85932417  0.46864652     0.08900
C612        C  0.21131340  0.89490907  0.40436695    -0.54600
C613        C  0.24799117  0.88239394  0.40330138     0.09500
H614        H  0.16749456  0.81105708  0.41349456     0.14000
H615        H  0.28663668  0.83703765  0.42589104    -0.00300
H616        H  0.19531914  0.88193010  0.49909628     0.14300
H617        H  0.20131450  0.91620783  0.38393622     0.14100
C618        C  0.30293437  0.59740652  0.44760233     0.85900
C619        C  0.30184971  0.64207607  0.44702669    -0.54400
C620        C  0.26606855  0.65798096  0.44412101     0.08800
C621        C  0.23447424  0.62859034  0.44115833     0.19800
C622        C  0.27478707  0.58729661  0.48135990    -0.55100
C623        C  0.23860135  0.60400482  0.47722223     0.08900
C624        C  0.28101793  0.58663258  0.41063607    -0.54600
C625        C  0.24574166  0.60232824  0.40795602     0.09500
H626        H  0.32672711  0.66006849  0.44749171     0.14000
H627        H  0.20563129  0.64161955  0.43677625    -0.00300
H628        H  0.28238376  0.56846774  0.50506022     0.14300
H629        H  0.29232303  0.56834975  0.38773380     0.14100
In630      In  0.34561130  0.82936017  0.52734182     1.36900
C631        C  0.35044064  0.88077539  0.58506336     0.77000
O632        O  0.30345706  0.87379511  0.50221727    -0.61500
O633        O  0.28331047  0.81807642  0.51004509    -0.52400
C634        C  0.40288409  0.83393706  0.47462761     0.69600
O635        O  0.40661648  0.84281518  0.50965585    -0.47200
C636        C  0.35617807  0.75872288  0.56059373     0.74300
O637        O  0.36972034  0.88304086  0.55445433    -0.59100
O638        O  0.34744034  0.76157070  0.52540750    -0.49200
O639        O  0.32871125  0.85225053  0.58622981    -0.55500
C640        C  0.27599667  0.85150368  0.49774948     0.84500
O641        O  0.36994598  0.82250260  0.46628138    -0.57400
O642        O  0.36064038  0.79088665  0.57656411    -0.60700
C643        C  0.09057210  0.77273897  0.63419123     0.85900
C644        C  0.13181298  0.77122356  0.64995510    -0.54400
C645        C  0.14742923  0.73543709  0.65311818     0.08800
C646        C  0.12037874  0.70346989  0.64251419     0.19800
C647        C  0.09295529  0.74810450  0.59579310    -0.55100
C648        C  0.10879070  0.71140830  0.60111651     0.08900
C649        C  0.06881417  0.74669582  0.66220429    -0.54600
C650        C  0.08460657  0.71111891  0.66628897     0.09500
H651        H  0.14905046  0.79634529  0.65500017     0.14000
H652        H  0.13310980  0.67424428  0.64690984    -0.00300
H653        H  0.08310349  0.75843058  0.56799253     0.14300
H654        H  0.04439684  0.75537423  0.67946451     0.14100
C655        C  0.36032463  0.65782870  0.61335263     0.85900
C656        C  0.31714323  0.66272813  0.62187737    -0.54400
C657        C  0.30509218  0.69983426  0.62660128     0.08800
C658        C  0.33650293  0.72903311  0.62440525     0.19800
C659        C  0.36715167  0.68545067  0.57809436    -0.55100
C660        C  0.35458558  0.72318775  0.58486389     0.08900
C661        C  0.37869574  0.67883541  0.64801198    -0.54600
C662        C  0.36633070  0.71556057  0.65301638     0.09500
H663        H  0.29743971  0.63951639  0.62546050     0.14000
H664        H  0.32601723  0.75884460  0.63060062    -0.00300
H665        H  0.38087089  0.67628230  0.55147137     0.14300
H666        H  0.39832342  0.66556831  0.66840825     0.14100
In667      In  0.13556821  0.46341870  0.67399770     1.36900
C668        C  0.20554309  0.42648473  0.66794644     0.77000
O669        O  0.14855091  0.47872965  0.73742185    -0.61500
O670        O  0.09614091  0.49752698  0.71464731    -0.52400
C671        C  0.13457376  0.52000256  0.61984414     0.69600
O672        O  0.14247717  0.52557452  0.65492145    -0.47200
C673        C  0.08006883  0.41033644  0.66552851     0.74300
O674        O  0.20188448  0.46218786  0.66281478    -0.59100
O675        O  0.10407436  0.41009590  0.69255412    -0.49200
O676        O  0.17416790  0.41086374  0.67434308    -0.55500
C677        C  0.11835642  0.49812027  0.74314873     0.84500
O678        O  0.12730391  0.48529844  0.61202018    -0.57400
O679        O  0.08429901  0.43765424  0.64214986    -0.60700
C680        C  0.18273121  0.37288313  0.92620104     0.85900
C681        C  0.20666748  0.34995673  0.95609490    -0.54400
C682        C  0.24362967  0.34399221  0.94589470     0.08800
C683        C  0.25459789  0.36238906  0.90790169     0.19800
C684        C  0.20559217  0.41125493  0.92083283    -0.55100
C685        C  0.24378695  0.40484725  0.91131584     0.08900
C686        C  0.19012484  0.35066518  0.88808465    -0.54600
C687        C  0.22738126  0.34673616  0.87794985     0.09500
H688        H  0.19566294  0.33668497  0.98173000     0.14000
H689        H  0.28491237  0.35683450  0.89974804    -0.00300
H690        H  0.19299226  0.43985834  0.92392541     0.14300
H691        H  0.16776907  0.34348895  0.86778307     0.14100
C692        C  0.30762577  0.37562122  0.66152690     0.85900
C693        C  0.28641490  0.33860155  0.65021504    -0.54400
C694        C  0.25214761  0.33476677  0.66733621     0.08800
C695        C  0.24131262  0.36701084  0.69473222     0.19800
C696        C  0.27751741  0.40894089  0.65305583    -0.55100
C697        C  0.24228898  0.40344413  0.67046723     0.08900
C698        C  0.30912743  0.37374272  0.70618922    -0.54600
C699        C  0.27446238  0.36958086  0.72289049     0.09500
H700        H  0.29682834  0.31750633  0.62947742     0.14000
H701        H  0.21357610  0.36218336  0.70928003    -0.00300
H702        H  0.28314863  0.43320817  0.63454010     0.14300
H703        H  0.33476089  0.37480036  0.72359643     0.14100
In704      In  0.34065519  0.46694729  0.87846556     1.36900
C705        C  0.27490738  0.43227590  0.90195417     0.77000
O706        O  0.35117334  0.51928114  0.84299065    -0.61500
O707        O  0.34288141  0.46949040  0.81017200    -0.52400
C708        C  0.34641029  0.52079723  0.93527474     0.69600
O709        O  0.36868470  0.49187882  0.93248735    -0.47200
C710        C  0.39829831  0.41303360  0.87670695     0.74300
O711        O  0.30672825  0.42949628  0.91853097    -0.59100
O712        O  0.36554049  0.40739483  0.86290864    -0.49200
O713        O  0.27556815  0.45406096  0.87292833    -0.55500
C714        C  0.34957693  0.50503516  0.80965350     0.84500
O715        O  0.32142239  0.52233194  0.90905846    -0.57400
O716        O  0.40199953  0.44641736  0.89061302    -0.60700
C717        C  0.36940231  0.56005079  0.71159605     0.85900
C718        C  0.39403773  0.58695887  0.73617363    -0.54400
C719        C  0.38078357  0.59387158  0.77227415     0.08800
C720        C  0.34364114  0.57335208  0.78151324     0.19800
C721        C  0.36630837  0.52290266  0.73758053    -0.55100
C722        C  0.35317358  0.53072510  0.77492162     0.08900
C723        C  0.32933149  0.57915854  0.71387253    -0.54600
C724        C  0.31522746  0.58398747  0.74973837     0.09500
H725        H  0.42040861  0.59894667  0.72688490     0.14000
H726        H  0.33237086  0.58048137  0.81069987    -0.00300
H727        H  0.37479326  0.49425939  0.72789569     0.14300
H728        H  0.31140318  0.58560787  0.68912886     0.14100
C729        C  0.10647982  0.56414241  0.83555997     0.85900
C730        C  0.08051371  0.59148482  0.81179028    -0.54400
C731        C  0.08962570  0.59348252  0.77397172     0.08800
C732        C  0.12404630  0.56879340  0.76225077     0.19800
C733        C  0.10525589  0.52473054  0.81294205    -0.55100
C734        C  0.11454307  0.52803263  0.77412283     0.08900
C735        C  0.14698482  0.57886775  0.82715303    -0.54600
C736        C  0.15612996  0.58080358  0.78919839     0.09500
H737        H  0.05876276  0.61073856  0.82356212     0.14000
H738        H  0.13176755  0.57156067  0.73128965    -0.00300
H739        H  0.09828916  0.49757328  0.82619633     0.14300
H740        H  0.16780289  0.58513224  0.84931647     0.14100
C741        C  0.12767623  0.66347362  0.93982927     0.85900
C742        C  0.17170620  0.66174344  0.94176425    -0.54400
C743        C  0.18861991  0.69627205  0.93905329     0.08800
C744        C  0.16079217  0.73015123  0.93454852     0.19800
C745        C  0.11609881  0.69313779  0.97252880    -0.55100
C746        C  0.13404014  0.72836480  0.96927022     0.08900
C747        C  0.11946186  0.68561982  0.90202983    -0.54600
C748        C  0.13625415  0.72035126  0.89975334     0.09500
H749        H  0.18919801  0.63581382  0.94295775     0.14000
H750        H  0.17513902  0.75808749  0.93133654    -0.00300
H751        H  0.09615918  0.68687898  0.99543135     0.14300
H752        H  0.10181932  0.67479572  0.87874105     0.14100
C753        C  0.40251378  0.75540433  0.92462503     0.85900
C754        C  0.36188170  0.75338370  0.90756501    -0.54400
C755        C  0.34690982  0.71771083  0.90648814     0.08800
C756        C  0.37480944  0.68629021  0.91913641     0.19800
C757        C  0.39966691  0.73332031  0.96410295    -0.55100
C758        C  0.38474451  0.69676089  0.96024640     0.08900
C759        C  0.42563924  0.72754117  0.89824140    -0.54600
C760        C  0.41094840  0.69167087  0.89536630     0.09500
H761        H  0.34424571  0.77853234  0.90102392     0.14000
H762        H  0.36287615  0.65712716  0.91685086    -0.00300
H763        H  0.40774043  0.74552298  0.99172336     0.14300
H764        H  0.44924672  0.73572339  0.88016688     0.14100
In765      In  0.35130615  0.60204344  0.02553166     1.36900
C766        C  0.37488682  0.66736523  0.98970017     0.77000
O767        O  0.32853938  0.58043431  0.96775774    -0.61500
O768        O  0.37126608  0.54670263  0.99515546    -0.52400
C769        C  0.40121997  0.60422499  0.08521824     0.69600
O770        O  0.37095170  0.62442450  0.08396855    -0.47200
C771        C  0.28420027  0.58513041  0.06168365     0.74300
O772        O  0.39587580  0.63816677  0.99539240    -0.59100
O773        O  0.31101636  0.56096125  0.05645665    -0.49200
O774        O  0.34158408  0.66385315  0.00309162    -0.55500
C775        C  0.34892346  0.55007743  0.96674077     0.84500
O776        O  0.40527699  0.58160197  0.05682541    -0.57400
O777        O  0.29091190  0.61755909  0.04699322    -0.60700
In778      In  0.13090382  0.83203003  0.03408763     1.36900
C779        C  0.07377248  0.83056471  0.08738347     0.77000
O780        O  0.10902545  0.76949601  0.02251905    -0.61500
O781        O  0.15181166  0.79224412  0.98768151    -0.52400
C782        C  0.12009305  0.88883925  0.98165669     0.69600
O783        O  0.12871802  0.85453943  0.97305024    -0.47200
C784        C  0.20133210  0.83967949  0.06801582     0.74300
O785        O  0.06769768  0.83520408  0.05180481    -0.59100
O786        O  0.18329687  0.80896505  0.06394777    -0.49200
O787        O  0.10872766  0.82778874  0.09572980    -0.55500
C788        C  0.13108831  0.76384243  0.99427796     0.84500
O789        O  0.11538689  0.89439982  0.01738795    -0.57400
O790        O  0.18391384  0.86815902  0.05355061    -0.60700
C791        C  0.19399692  0.56942549  0.12815095     0.85900
C792        C  0.19518675  0.61320696  0.13622619    -0.54400
C793        C  0.23058720  0.62808344  0.13583714     0.08800
C794        C  0.26251255  0.59828974  0.13059735     0.19800
C795        C  0.21780754  0.56423510  0.08969845    -0.55100
C796        C  0.25401058  0.58008633  0.09179089     0.08900
C797        C  0.22031806  0.55272224  0.15977919    -0.54600
C798        C  0.25582421  0.56731598  0.16082628     0.09500
H799        H  0.17038892  0.63147819  0.14169526     0.14000
H800        H  0.29133451  0.61093667  0.13210456    -0.00300
H801        H  0.20673739  0.55093339  0.06373125     0.14300
H802        H  0.21135295  0.53277116  0.18160505     0.14100
C803        C  0.30028353  0.84906813  0.12284726     0.85900
C804        C  0.30204505  0.80452945  0.12208673    -0.54400
C805        C  0.26797786  0.78732441  0.12536025     0.08800
C806        C  0.23437677  0.81542403  0.12898863     0.19800
C807        C  0.27084896  0.85939294  0.08969768    -0.55100
C808        C  0.23612694  0.84071312  0.09344871     0.08900
C809        C  0.27779660  0.85877023  0.16010636    -0.54600
C810        C  0.24365117  0.84148058  0.16286412     0.09500
H811        H  0.32758853  0.78722163  0.11925467     0.14000
H812        H  0.20646794  0.80129642  0.13239895    -0.00300
H813        H  0.27719926  0.87820922  0.06581959     0.14300
H814        H  0.28797597  0.87752015  0.18278815     0.14100
C815        C  0.10348563  0.87769597  0.73032619     0.85900
C816        C  0.09677985  0.84056057  0.75352112    -0.54400
C817        C  0.11471067  0.83917155  0.78803697     0.08800
C818        C  0.13891117  0.87377941  0.79663942     0.19800
C819        C  0.09277063  0.91129889  0.75937854    -0.55100
C820        C  0.11243686  0.90890123  0.79419264     0.08900
C821        C  0.14769492  0.87922452  0.72786172    -0.54600
C822        C  0.16566974  0.87659121  0.76252369     0.09500
H823        H  0.08132981  0.81619123  0.74247556     0.14000
H824        H  0.15408020  0.87084411  0.82468173    -0.00300
H825        H  0.07306235  0.93473722  0.75258156     0.14300
H826        H  0.16394904  0.88145946  0.70156917     0.14100
C827        C  0.38701235  0.86182948  0.83128259     0.85900
C828        C  0.39756422  0.82636191  0.80638315    -0.54400
C829        C  0.37934390  0.82506241  0.77221009     0.08800
C830        C  0.35153656  0.85833386  0.76491799     0.19800
C831        C  0.39356082  0.89732194  0.80410646    -0.55100
C832        C  0.37398107  0.89494731  0.76928129     0.08900
C833        C  0.34286851  0.85948630  0.83394288    -0.54600
C834        C  0.32464210  0.85891465  0.79921583     0.09500
H835        H  0.41608147  0.80274196  0.81556913     0.14000
H836        H  0.33694565  0.85615420  0.73652669    -0.00300
H837        H  0.41006978  0.92211145  0.81240320     0.14300
H838        H  0.32720575  0.85677125  0.86051133     0.14100
In839      In  0.11967575  0.97441411  0.89667068     1.36900
C840        C  0.18865881  0.00977529  0.90292702     0.77000
O841        O  0.08581394  0.95568369  0.84141770    -0.61500
O842        O  0.14281696  0.93756242  0.84885321    -0.52400
C843        C  0.11772769  0.91948247  0.95200063     0.69600
O844        O  0.10939374  0.95435120  0.95892424    -0.47200
C845        C  0.06329211  0.02949084  0.89806082     0.74300
O846        O  0.16995211  0.00528363  0.87221020    -0.59100
O847        O  0.05763050  0.99476604  0.90638000    -0.49200
O848        O  0.17271831  0.99518424  0.93179206    -0.55500
C849        C  0.11335439  0.93588132  0.82813412     0.84500
O850        O  0.12552136  0.91282244  0.91716330    -0.57400
O851        O  0.09763367  0.03619915  0.89031606    -0.60700
In852      In  0.35230639  0.96394981  0.67169448     1.36900
C853        C  0.28505586  0.00215272  0.65614588     0.77000
O854        O  0.39385746  0.93711894  0.71706903    -0.61500
O855        O  0.33490317  0.93300500  0.72623875    -0.52400
C856        C  0.35250937  0.90948712  0.61651555     0.69600
O857        O  0.33448130  0.90631695  0.64777151    -0.47200
C858        C  0.40363385  0.02101766  0.66951643     0.74300
O859        O  0.30245319  0.98241149  0.63098620    -0.59100
O860        O  0.37235913  0.02381496  0.68730762    -0.49200
O861        O  0.30085506  0.00050567  0.68889446    -0.55500
C862        C  0.36796074  0.92422545  0.73816944     0.84500
O863        O  0.37163180  0.93977246  0.61402979    -0.57400
O864        O  0.40860782  0.98928348  0.65218624    -0.60700
C865        C  0.28587951  0.06605877  0.90901538     0.85900
C866        C  0.26362643  0.10258051  0.92241446    -0.54400
C867        C  0.22757085  0.10538051  0.90870333     0.08800
C868        C  0.21641446  0.07331905  0.88134392     0.19800
C869        C  0.25855735  0.03188820  0.91943949    -0.55100
C870        C  0.22195645  0.03629634  0.90390640     0.08900
C871        C  0.28314399  0.06817713  0.86456154    -0.54600
C872        C  0.24714957  0.07181969  0.85083674     0.09500
H873        H  0.27559448  0.12534256  0.93997140     0.14000
H874        H  0.18731844  0.07751798  0.86901947    -0.00300
H875        H  0.26764482  0.00672592  0.93562817     0.14300
H876        H  0.30693562  0.06763940  0.84469532     0.14100
C877        C  0.19587350  0.06724339  0.62624240     0.85900
C878        C  0.22399719  0.09709016  0.61090449    -0.54400
C879        C  0.25760902  0.09837373  0.63003453     0.08800
C880        C  0.26036972  0.07136425  0.66431712     0.19800
C881        C  0.22031523  0.02853867  0.62679268    -0.55100
C882        C  0.25419055  0.03139418  0.64771591     0.08900
C883        C  0.19192957  0.07819993  0.66938953    -0.54600
C884        C  0.22532274  0.07996185  0.68863179     0.09500
H885        H  0.21782959  0.11748394  0.58824236     0.14000
H886        H  0.28711040  0.07438200  0.68123060    -0.00300
H887        H  0.21147629  0.00211123  0.61292386     0.14300
H888        H  0.16514622  0.08227762  0.68465737     0.14100
C889        C  0.22768908  0.10876247  0.79359394    -0.20900
C890        C  0.23862546  0.07338776  0.80973815    -0.07500
C891        C  0.24203992  0.04011881  0.78659205     0.13400
C892        C  0.23603221  0.04332082  0.74712705    -0.21000
C893        C  0.22716047  0.07896864  0.73057198    -0.07500
C894        C  0.22206429  0.11207249  0.75381787     0.13400
C895        C  0.21167517  0.15102006  0.73756182    -0.24300
H896        H  0.22459228  0.13401821  0.81190432     0.14700
H897        H  0.23854943  0.01790606  0.72897635     0.14700
C898        C  0.25156741  0.00129828  0.80342790    -0.24300
H899        H  0.20819553  0.15057868  0.70578706     0.04900
H900        H  0.23437850  0.17168763  0.74468958     0.08100
H901        H  0.18439691  0.16155543  0.75044923     0.08100
H902        H  0.22937525  0.99379749  0.82466507     0.08100
H903        H  0.27980184  0.00181418  0.81786043     0.08100
H904        H  0.25266654  0.97835232  0.78097339     0.04900
C905        C  0.22256124  0.89594365  0.79815533    -0.20900
C906        C  0.20718493  0.87342127  0.76852230    -0.07500
C907        C  0.22972989  0.84401832  0.75116130     0.13400
C908        C  0.26743263  0.83875042  0.76348121    -0.21000
C909        C  0.28290415  0.86129135  0.79324593    -0.07500
C910        C  0.25977321  0.88979213  0.81146872     0.13400
C911        C  0.27371490  0.91434981  0.84444152    -0.24300
H912        H  0.20485370  0.91803082  0.81168357     0.14700
H913        H  0.28510341  0.81704492  0.74930021     0.14700
C914        C  0.21425320  0.81726574  0.72068146    -0.24300
H915        H  0.25204165  0.93624000  0.85350906     0.04900
H916        H  0.29992535  0.92957198  0.83599241     0.08100
H917        H  0.27914706  0.89634724  0.87016476     0.08100
H918        H  0.20766912  0.83341066  0.69396730     0.08100
H919        H  0.18812659  0.80323056  0.73125141     0.08100
H920        H  0.23522146  0.79412713  0.71287811     0.04900
C921        C  0.23280771  0.73132069  0.10274246    -0.20900
C922        C  0.26255601  0.74532170  0.12538869    -0.07500
C923        C  0.28231041  0.72015935  0.15070139     0.13400
C924        C  0.26878292  0.68303328  0.15579882    -0.21000
C925        C  0.23822121  0.66944514  0.13393446    -0.07500
C926        C  0.22071827  0.69352932  0.10598130     0.13400
C927        C  0.19063254  0.67969044  0.07821237    -0.24300
H928        H  0.21903507  0.75011054  0.08209614     0.14700
H929        H  0.28325238  0.66384283  0.17582844     0.14700
C930        C  0.31847473  0.73097150  0.17104015    -0.24300
H931        H  0.18326593  0.70174583  0.05623635     0.04900
H932        H  0.16390549  0.67348529  0.09375534     0.08100
H933        H  0.20114700  0.65357545  0.06263304     0.08100
H934        H  0.31599467  0.76039031  0.18271693     0.08100
H935        H  0.34250427  0.72972992  0.15026016     0.08100
H936        H  0.32547009  0.71108387  0.19510521     0.04900
C937        C  0.38536840  0.85936741  0.90529061    -0.20900
C938        C  0.40751125  0.85931639  0.87127627    -0.07500
C939        C  0.44312434  0.83947421  0.87438927     0.13400
C940        C  0.44673611  0.80855296  0.90052470    -0.21000
C941        C  0.41546185  0.79817276  0.92374541    -0.07500
C942        C  0.38882258  0.82862683  0.93166044     0.13400
C943        C  0.36067862  0.82685604  0.96428309    -0.24300
H944        H  0.36179580  0.87973524  0.90849762     0.14700
H945        H  0.47212117  0.79039982  0.89928332     0.14700
C946        C  0.47551142  0.84757885  0.84745822    -0.24300
H947        H  0.36550526  0.80117630  0.98248897     0.04900
H948        H  0.33114367  0.82633029  0.95272367     0.08100
H949        H  0.36358091  0.85270600  0.98294341     0.08100
H950        H  0.48248683  0.82164682  0.82977996     0.08100
H951        H  0.50104931  0.85541096  0.86452482     0.08100
H952        H  0.46836827  0.87185447  0.82793064     0.04900
C953        C  0.09289405  0.76125286  0.86003261    -0.20900
C954        C  0.13006034  0.74731125  0.86753238    -0.07500
C955        C  0.16092891  0.76111619  0.84589700     0.13400
C956        C  0.15417283  0.78924636  0.81822122    -0.21000
C957        C  0.11760652  0.80476117  0.81225049    -0.07500
C958        C  0.08633508  0.79036055  0.83274085     0.13400
C959        C  0.04663117  0.80653303  0.82678756    -0.24300
H960        H  0.06928419  0.75052107  0.87671995     0.14700
H961        H  0.17800976  0.80052810  0.80231717     0.14700
C962        C  0.20120499  0.74686305  0.85188248    -0.24300
H963        H  0.02569106  0.79262800  0.84594302     0.04900
H964        H  0.03757975  0.80165335  0.79651392     0.08100
H965        H  0.04604277  0.83790973  0.83307638     0.08100
H966        H  0.20143213  0.71524079  0.85402415     0.08100
H967        H  0.21317769  0.75945776  0.87856574     0.08100
H968        H  0.22009430  0.75479873  0.82760777     0.04900
C969        C  0.24751449  0.67803478  0.90425527    -0.20900
C970        C  0.23002620  0.69984174  0.93377795    -0.07500
C971        C  0.25129016  0.72709230  0.95444107     0.13400
C972        C  0.28877917  0.73356201  0.94335746    -0.21000
C973        C  0.30584447  0.71282496  0.91278798    -0.07500
C974        C  0.28516250  0.68443543  0.89317690     0.13400
C975        C  0.30176048  0.66204422  0.85958334    -0.24300
H976        H  0.23105193  0.65698976  0.88868524     0.14700
H977        H  0.30536559  0.75389833  0.95987017     0.14700
C978        C  0.23624852  0.74829516  0.98944977    -0.24300
H979        H  0.31039663  0.68210096  0.83659385     0.04900
H980        H  0.28066744  0.64193254  0.84756201     0.08100
H981        H  0.32669404  0.64419460  0.86822198     0.08100
H982        H  0.20812410  0.73799876  0.99872990     0.08100
H983        H  0.23408981  0.77959458  0.98339653     0.08100
H984        H  0.25607953  0.74364175  0.01405452     0.04900
C985        C  0.06678449  0.58944571  0.89334061    -0.20900
C986        C  0.09789231  0.56641437  0.87983082    -0.07500
C987        C  0.12771367  0.56102060  0.90701104     0.13400
C988        C  0.13289882  0.58912052  0.93609024    -0.21000
C989        C  0.10943318  0.62283603  0.93733486    -0.07500
C990        C  0.07251904  0.61849954  0.92148706     0.13400
C991        C  0.04036737  0.64582992  0.93221355    -0.24300
H992        H  0.03960040  0.58840919  0.87861531     0.14700
H993        H  0.15743397  0.58617807  0.95480231     0.14700
C994        C  0.15611422  0.52814277  0.90360057    -0.24300
H995        H  0.01345147  0.63810801  0.91741746     0.04900
H996        H  0.04702221  0.67580380  0.92435604     0.08100
H997        H  0.03547626  0.64453161  0.96379615     0.08100
H998        H  0.14921398  0.50869942  0.87919626     0.08100
H999        H  0.15581998  0.51099789  0.93049450     0.08100
H1000       H  0.18524977  0.53931127  0.89933373     0.04900
C1001       C  0.42003361  0.67921438  0.82597501    -0.20900
C1002       C  0.42000631  0.66462327  0.86356975    -0.07500
C1003       C  0.41725966  0.62461453  0.86906565     0.13400
C1004       C  0.40671593  0.60143220  0.83797838    -0.21000
C1005       C  0.40124448  0.61708914  0.80123255    -0.07500
C1006       C  0.41164129  0.65554449  0.79444094     0.13400
C1007       C  0.41169742  0.67260095  0.75475561    -0.24300
H1008       H  0.42318204  0.70981053  0.82145441     0.14700
H1009       H  0.40164936  0.57123405  0.84274281     0.14700
C1010       C  0.42376894  0.60607688  0.90767070    -0.24300
H1011       H  0.41714495  0.70392646  0.75568091     0.04900
H1012       H  0.38383427  0.66780739  0.74060156     0.08100
H1013       H  0.43498280  0.65935803  0.73731480     0.08100
H1014       H  0.39693356  0.59324247  0.91788326     0.08100
H1015       H  0.43390014  0.62696182  0.92951443     0.08100
H1016       H  0.44594890  0.58298664  0.90489692     0.04900
C1017       C  0.25687500  0.61689752  0.77495607    -0.20900
C1018       C  0.27355768  0.58509904  0.75610716    -0.07500
C1019       C  0.25044862  0.55409877  0.74451709     0.13400
C1020       C  0.21187614  0.55486333  0.75431998    -0.21000
C1021       C  0.19577918  0.58514192  0.77581879    -0.07500
C1022       C  0.21810255  0.61712526  0.78536535     0.13400
C1023       C  0.20092928  0.65183095  0.80530584    -0.24300
H1024       H  0.27432402  0.64142363  0.78156304     0.14700
H1025       H  0.19457364  0.53074521  0.74658362     0.14700
C1026       C  0.26596197  0.51932290  0.72297552    -0.24300
H1027       H  0.22195591  0.67519051  0.80715538     0.04900
H1028       H  0.17573972  0.66271278  0.78897263     0.08100
H1029       H  0.19179491  0.64454857  0.83486352     0.08100
H1030       H  0.28780152  0.50409931  0.74059189     0.08100
H1031       H  0.27813475  0.52770004  0.69489437     0.08100
H1032       H  0.24316458  0.49871551  0.71627672     0.04900
C1033       C  0.22700353  0.38310735  0.81823563    -0.20900
C1034       C  0.23850796  0.34947579  0.83733916    -0.07500
C1035       C  0.26611864  0.32457944  0.82053548     0.13400
C1036       C  0.28025612  0.33312217  0.78379427    -0.21000
C1037       C  0.26778514  0.36642969  0.76446909    -0.07500
C1038       C  0.24231007  0.39249753  0.78273663     0.13400
C1039       C  0.23142661  0.43093289  0.76597065    -0.24300
H1040       H  0.20745059  0.40340673  0.83215123     0.14700
H1041       H  0.30002231  0.31316852  0.76974703     0.14700
C1042       C  0.28056417  0.28882429  0.84043420    -0.24300
H1043       H  0.23674909  0.45407389  0.78744769     0.04900
H1044       H  0.20074912  0.43118789  0.75831096     0.08100
H1045       H  0.24850216  0.43749698  0.74019570     0.08100
H1046       H  0.26631567  0.28386206  0.86845113     0.08100
H1047       H  0.31159435  0.29130389  0.84582562     0.08100
H1048       H  0.27539168  0.26346099  0.82172219     0.04900
C1049       C  0.35312341  0.73567573  0.71929847    -0.20900
C1050       C  0.37581656  0.73905320  0.68641392    -0.07500
C1051       C  0.40333464  0.76785990  0.68406208     0.13400
C1052       C  0.40551098  0.79492711  0.71385290    -0.21000
C1053       C  0.38200515  0.79215893  0.74617926    -0.07500
C1054       C  0.35730665  0.76098646  0.75030142     0.13400
C1055       C  0.33582193  0.75418703  0.78721091    -0.24300
H1056       H  0.33222405  0.71311751  0.72064994     0.14700
H1057       H  0.42465562  0.81892282  0.71146855     0.14700
C1058       C  0.42962974  0.77045760  0.64995012    -0.24300
H1059       H  0.31775238  0.72839758  0.78494314     0.04900
H1060       H  0.31706411  0.77909988  0.79450534     0.08100
H1061       H  0.35640716  0.74954723  0.81116986     0.08100
H1062       H  0.41294933  0.77496787  0.62325173     0.08100
H1063       H  0.44667468  0.74332695  0.64714711     0.08100
H1064       H  0.44961969  0.79468100  0.65305018     0.04900
C1065       C  0.41096605  0.60568838  0.62728373    -0.20900
C1066       C  0.37457646  0.61479285  0.61190113    -0.07500
C1067       C  0.34887294  0.58355010  0.61203656     0.13400
C1068       C  0.35351923  0.55417268  0.63992065    -0.21000
C1069       C  0.38231681  0.55705245  0.66829375    -0.07500
C1070       C  0.41522835  0.57635301  0.65516000     0.13400
C1071       C  0.45441981  0.56664664  0.67028532    -0.24300
H1072       H  0.43441054  0.62490792  0.62236981     0.14700
H1073       H  0.33062365  0.53412697  0.64407107     0.14700
C1074       C  0.31674054  0.58074969  0.58349345    -0.24300
H1075       H  0.46781365  0.59267129  0.68264484     0.04900
H1076       H  0.47257532  0.55583374  0.64619638     0.08100
H1077       H  0.45335821  0.54391905  0.69261242     0.08100
H1078       H  0.31629050  0.60550539  0.56339218     0.08100
H1079       H  0.28895321  0.57949304  0.59873336     0.08100
H1080       H  0.32057459  0.55397629  0.56618887     0.04900
C1081       C  0.06317355  0.64720201  0.68458624    -0.20900
C1082       C  0.07340593  0.68422125  0.69612589    -0.07500
C1083       C  0.08124324  0.69226743  0.73518644     0.13400
C1084       C  0.08203520  0.66209983  0.76140005    -0.21000
C1085       C  0.07530510  0.62441650  0.74915033    -0.07500
C1086       C  0.06336260  0.61711637  0.71103501     0.13400
C1087       C  0.05175958  0.57787655  0.69741577    -0.24300
H1088       H  0.05702875  0.64136552  0.65447314     0.14700
H1089       H  0.09124066  0.66741934  0.79079790     0.14700
C1090       C  0.09162965  0.73183750  0.74889823    -0.24300
H1091       H  0.07219800  0.56693409  0.67531420     0.04900
H1092       H  0.02282363  0.57982317  0.68444957     0.08100
H1093       H  0.05046941  0.55704102  0.72140655     0.08100
H1094       H  0.11622572  0.74271834  0.73243774     0.08100
H1095       H  0.09967597  0.73168984  0.77978773     0.08100
H1096       H  0.06668263  0.75155839  0.74535684     0.04900
C1097       C  0.04429725  0.82611698  0.65793835    -0.20900
C1098       C  0.07557522  0.81549861  0.63415595    -0.07500
C1099       C  0.10137144  0.84565379  0.62739476     0.13400
C1100       C  0.10531990  0.87481936  0.65573738    -0.21000
C1101       C  0.08343634  0.87421154  0.69008334    -0.07500
C1102       C  0.04825067  0.85484523  0.68667752     0.13400
C1103       C  0.01667282  0.86057113  0.71556346    -0.24300
H1104       H  0.01906788  0.80869086  0.65816068     0.14700
H1105       H  0.12814707  0.89503222  0.65264951     0.14700
C1106       C  0.12793381  0.84468013  0.59336602    -0.24300
H1107       H  0.99008736  0.86942473  0.70033564     0.04900
H1108       H  0.02333596  0.88324760  0.73700309     0.08100
H1109       H  0.01166408  0.83324872  0.73101478     0.08100
H1110       H  0.15801579  0.84286803  0.60332204     0.08100
H1111       H  0.12377032  0.87138596  0.57634848     0.08100
H1112       H  0.12238269  0.81978682  0.57412682     0.04900
C1113       C  0.20607840  0.74275796  0.61616274    -0.20900
C1114       C  0.18873222  0.72931626  0.64965065    -0.07500
C1115       C  0.20988120  0.70731241  0.67634183     0.13400
C1116       C  0.24812752  0.69810369  0.66826012    -0.21000
C1117       C  0.26527342  0.71108005  0.63439317    -0.07500
C1118       C  0.24427995  0.73432474  0.60836743     0.13400
C1119       C  0.26147299  0.74982092  0.57203741    -0.24300
H1120       H  0.18931350  0.75934803  0.59560175     0.14700
H1121       H  0.26477272  0.68085936  0.68836463     0.14700
C1122       C  0.19243003  0.69422609  0.71342241    -0.24300
H1123       H  0.27528394  0.72620282  0.55513070     0.04900
H1124       H  0.28255011  0.77186431  0.57965754     0.08100
H1125       H  0.23973419  0.76410446  0.55340351     0.08100
H1126       H  0.18252096  0.71961344  0.73050959     0.08100
H1127       H  0.21362860  0.67798060  0.73090674     0.08100
H1128       H  0.16802008  0.67522017  0.70757392     0.04900
C1129       C  0.22110870  0.75748075  0.45386053    -0.20900
C1130       C  0.23755540  0.77618675  0.42249183    -0.07500
C1131       C  0.26577730  0.75696276  0.40029555     0.13400
C1132       C  0.27613959  0.71893104  0.40942902    -0.21000
C1133       C  0.25819680  0.69959848  0.43958673    -0.07500
C1134       C  0.23082498  0.71935538  0.46258491     0.13400
C1135       C  0.21236645  0.70105811  0.49695256    -0.24300
H1136       H  0.20066442  0.77298730  0.47187926     0.14700
H1137       H  0.29705399  0.70358009  0.39183338     0.14700
C1138       C  0.28354166  0.77561239  0.36587802    -0.24300
H1139       H  0.19629394  0.72256243  0.51470983     0.04900
H1140       H  0.23434884  0.68721645  0.51557544     0.08100
H1141       H  0.19158533  0.67947847  0.48741258     0.08100
H1142       H  0.30320513  0.75527829  0.35065003     0.08100
H1143       H  0.30038549  0.80084884  0.37450751     0.08100
H1144       H  0.26070746  0.78490310  0.34557583     0.04900
C1145       C  0.28922654  0.24759594  0.95697733    -0.20900
C1146       C  0.32736990  0.25876433  0.95602420    -0.07500
C1147       C  0.33662520  0.29708933  0.96494888     0.13400
C1148       C  0.30727332  0.32466259  0.96799081    -0.21000
C1149       C  0.26917423  0.31444200  0.96262659    -0.07500
C1150       C  0.25977194  0.27508336  0.96026507     0.13400
C1151       C  0.21917074  0.26198432  0.95713697    -0.24300
H1152       H  0.28227785  0.21789378  0.95092069     0.14700
H1153       H  0.31438927  0.35480422  0.97064491     0.14700
C1154       C  0.37708881  0.30988655  0.96966623    -0.24300
H1155       H  0.20528979  0.27485141  0.93144551     0.04900
H1156       H  0.20313149  0.27046597  0.98349000     0.08100
H1157       H  0.21759778  0.23022042  0.95437654     0.08100
H1158       H  0.38457206  0.32965608  0.94592449     0.08100
H1159       H  0.39749245  0.28516105  0.97000944     0.08100
H1160       H  0.38010253  0.32523935  0.99764637     0.04900
C1161       C  0.36389657  0.11345418  0.96269427    -0.20900
C1162       C  0.38297929  0.12602554  0.92919401    -0.07500
C1163       C  0.38617699  0.09786988  0.89951706     0.13400
C1164       C  0.35874764  0.06856454  0.89727197    -0.21000
C1165       C  0.32809781  0.06757385  0.92392764    -0.07500
C1166       C  0.33610669  0.08455167  0.96026330     0.13400
C1167       C  0.31298133  0.07566915  0.99543310    -0.24300
H1168       H  0.36693155  0.12905296  0.98960028     0.14700
H1169       H  0.35918911  0.04952329  0.87246347     0.14700
C1170       C  0.41613489  0.10013296  0.86863576    -0.24300
H1171       H  0.33228978  0.06524461  0.01868357     0.04900
H1172       H  0.29193230  0.05297311  0.98952443     0.08100
H1173       H  0.29756312  0.10201992  0.00562290     0.08100
H1174       H  0.43378564  0.07325243  0.86860886     0.08100
H1175       H  0.43536721  0.12463610  0.87358807     0.08100
H1176       H  0.40247227  0.10339893  0.83991953     0.04900
C1177       C  0.35122777  0.14875627  0.62420772    -0.20900
C1178       C  0.33823405  0.18696198  0.62742627    -0.07500
C1179       C  0.29924961  0.19602850  0.62221937     0.13400
C1180       C  0.27330249  0.16622705  0.62123591    -0.21000
C1181       C  0.28598850  0.12784544  0.62253996    -0.07500
C1182       C  0.32535453  0.11895928  0.62021377     0.13400
C1183       C  0.34007695  0.07867956  0.61259166    -0.24300
H1184       H  0.38153890  0.14219708  0.62616184     0.14700
H1185       H  0.24297702  0.17300464  0.62149215     0.14700
C1186       C  0.28458884  0.23674603  0.61972816    -0.24300
H1187       H  0.37154461  0.07776003  0.60888876     0.04900
H1188       H  0.32699183  0.06732955  0.58577543     0.08100
H1189       H  0.33317708  0.05972998  0.63678636     0.08100
H1190       H  0.29655431  0.25087931  0.59402508     0.08100
H1191       H  0.29256470  0.25262420  0.64624037     0.08100
H1192       H  0.25320016  0.23794517  0.61611429     0.04900
C1193       C  0.38016293  0.32774236  0.60032557    -0.20900
C1194       C  0.40323904  0.31655092  0.63195468    -0.07500
C1195       C  0.41045771  0.34703509  0.65814966     0.13400
C1196       C  0.38136321  0.37535907  0.66434916    -0.21000
C1197       C  0.34770417  0.37513411  0.64167456    -0.07500
C1198       C  0.35231190  0.35745270  0.60485103     0.13400
C1199       C  0.32538517  0.36602862  0.57212617    -0.24300
H1200       H  0.38004701  0.31047095  0.57425790     0.14700
H1201       H  0.38345156  0.39468959  0.68880655     0.14700
C1202       C  0.44627931  0.34665644  0.68196941    -0.24300
H1203       H  0.30965543  0.33976762  0.56402362     0.04900
H1204       H  0.34190157  0.37569182  0.54679683     0.08100
H1205       H  0.30450292  0.38918739  0.57980626     0.08100
H1206       H  0.47121410  0.35007187  0.66268906     0.08100
H1207       H  0.44996005  0.31904182  0.69727828     0.08100
H1208       H  0.44608894  0.37047545  0.70347273     0.04900
C1209       C  0.34022054  0.21460783  0.76091782    -0.20900
C1210       C  0.36783202  0.24041106  0.74828637    -0.07500
C1211       C  0.38937554  0.26077819  0.77598992     0.13400
C1212       C  0.38291262  0.25457160  0.81496309    -0.21000
C1213       C  0.35780982  0.22669957  0.82793552    -0.07500
C1214       C  0.33456245  0.20776210  0.80046683     0.13400
C1215       C  0.30280225  0.18149945  0.81170596    -0.24300
H1216       H  0.32313461  0.19950520  0.73980320     0.14700
H1217       H  0.39973800  0.27041536  0.83532229     0.14700
C1218       C  0.42184013  0.28661135  0.76550199    -0.24300
H1219       H  0.27572120  0.19186493  0.79840817     0.04900
H1220       H  0.29796692  0.18099447  0.84325428     0.08100
H1221       H  0.30919849  0.15180225  0.80123984     0.08100
H1222       H  0.41064440  0.31382464  0.75309200     0.08100
H1223       H  0.44141516  0.27143688  0.74511962     0.08100
H1224       H  0.43912026  0.29480998  0.79103084     0.04900
C1225       C  0.55985630  0.18038118  0.78766258    -0.20900
C1226       C  0.59542076  0.16279552  0.79404573    -0.07500
C1227       C  0.62912500  0.18290968  0.78800230     0.13400
C1228       C  0.62654987  0.22067515  0.77428526    -0.21000
C1229       C  0.59084733  0.23754606  0.76577774    -0.07500
C1230       C  0.55701440  0.21742302  0.77289921     0.13400
C1231       C  0.51755067  0.23381517  0.76534795    -0.24300
H1232       H  0.53408118  0.16474636  0.79353611     0.14700
H1233       H  0.65226433  0.23689616  0.76984009     0.14700
C1234       C  0.66730802  0.16411906  0.79571803    -0.24300
H1235       H  0.50212419  0.21444909  0.74536230     0.04900
H1236       H  0.51765357  0.26261463  0.75200185     0.08100
H1237       H  0.50146372  0.23594514  0.79287498     0.08100
H1238       H  0.67346976  0.14208326  0.77322403     0.08100
H1239       H  0.66699226  0.14936309  0.82375567     0.08100
H1240       H  0.69036329  0.18545951  0.79692221     0.04900
C1241       C  0.70737146  0.06569828  0.73217039    -0.20900
C1242       C  0.69515497  0.06326325  0.69392467    -0.07500
C1243       C  0.65893167  0.04914418  0.68490136     0.13400
C1244       C  0.63359973  0.04234767  0.71499181    -0.21000
C1245       C  0.64446720  0.04889601  0.75335283    -0.07500
C1246       C  0.68251130  0.05810342  0.76224515     0.13400
C1247       C  0.69661339  0.06243931  0.80298545    -0.24300
H1248       H  0.73605739  0.07512041  0.73843621     0.14700
H1249       H  0.60438395  0.03486932  0.70853354     0.14700
C1250       C  0.64700879  0.04179525  0.64387393    -0.24300
H1251       H  0.72659810  0.07190208  0.80375924     0.04900
H1252       H  0.69551252  0.03437790  0.81793880     0.08100
H1253       H  0.67905534  0.08412750  0.81874060     0.08100
H1254       H  0.66717067  0.02080556  0.63018027     0.08100
H1255       H  0.64713356  0.06901105  0.62756300     0.08100
H1256       H  0.61785313  0.02997139  0.64216084     0.04900
C1257       C  0.62316971  0.39107407  0.63494492    -0.20900
C1258       C  0.63891313  0.35850944  0.61557904    -0.07500
C1259       C  0.61352296  0.32736980  0.61215431     0.13400
C1260       C  0.58504186  0.32273698  0.64057725    -0.21000
C1261       C  0.58132110  0.34930308  0.67159266    -0.07500
C1262       C  0.59484761  0.38670405  0.66355756     0.13400
C1263       C  0.58343461  0.42114238  0.68767232    -0.24300
H1264       H  0.63658556  0.41870432  0.63216049     0.14700
H1265       H  0.56887474  0.29656761  0.64040044     0.14700
C1266       C  0.61865301  0.29716677  0.58119710    -0.24300
H1267       H  0.57112945  0.44384987  0.66874891     0.04900
H1268       H  0.60880074  0.43267668  0.70268690     0.08100
H1269       H  0.56166855  0.41397128  0.70948747     0.08100
H1270       H  0.64279878  0.30387410  0.56183304     0.08100
H1271       H  0.59230922  0.29587785  0.56350313     0.08100
H1272       H  0.62402350  0.26849001  0.59427065     0.04900
C1273       C  0.77224019  0.19930362  0.62814458    -0.20900
C1274       C  0.74958557  0.17895111  0.65371038    -0.07500
C1275       C  0.72459991  0.19945640  0.67841644     0.13400
C1276       C  0.72076079  0.23953511  0.67491925    -0.21000
C1277       C  0.74135014  0.25981442  0.64713423    -0.07500
C1278       C  0.76860484  0.23917841  0.62437732     0.13400
C1279       C  0.79211044  0.25728108  0.59364363    -0.24300
H1280       H  0.79148926  0.18346213  0.60912693     0.14700
H1281       H  0.70064942  0.25495946  0.69339420     0.14700
C1282       C  0.70266248  0.18034489  0.70958934    -0.24300
H1283       H  0.81060656  0.23581515  0.57843135     0.04900
H1284       H  0.81155563  0.27846642  0.60643075     0.08100
H1285       H  0.77291042  0.27010535  0.57178159     0.08100
H1286       H  0.70943671  0.14920541  0.71197970     0.08100
H1287       H  0.67156718  0.18440649  0.70456042     0.08100
H1288       H  0.71065074  0.19414342  0.73717169     0.04900
C1289       C  0.75669803  0.22468078  0.46468222    -0.20900
C1290       C  0.77380102  0.22503339  0.42824168    -0.07500
C1291       C  0.75444580  0.24130216  0.39663033     0.13400
C1292       C  0.71620856  0.25208410  0.40095134    -0.21000
C1293       C  0.69831218  0.24950457  0.43675873    -0.07500
C1294       C  0.71915266  0.23772365  0.46954216     0.13400
C1295       C  0.70269818  0.23861152  0.50968514    -0.24300
H1296       H  0.77270083  0.21407434  0.48935745     0.14700
H1297       H  0.70008729  0.26182764  0.37621623     0.14700
C1298       C  0.77394846  0.24708597  0.35864240    -0.24300
H1299       H  0.70340065  0.20919674  0.52196028     0.04900
H1300       H  0.67298059  0.25002817  0.51054628     0.08100
H1301       H  0.72008335  0.25757315  0.52827716     0.08100
H1302       H  0.75397042  0.25819522  0.33624950     0.08100
H1303       H  0.78647993  0.21947022  0.34854999     0.08100
H1304       H  0.79700617  0.26817413  0.36238598     0.04900
C1305       C  0.77412310  0.23996930  0.11495124    -0.20900
C1306       C  0.78965756  0.22467370  0.14899874    -0.07500
C1307       C  0.76780588  0.19977270  0.17158681     0.13400
C1308       C  0.72982008  0.19317884  0.16109810    -0.21000
C1309       C  0.71399602  0.21002425  0.12788053    -0.07500
C1310       C  0.73693799  0.23218090  0.10373161     0.13400
C1311       C  0.72371268  0.24647240  0.06509792    -0.24300
H1312       H  0.79164258  0.25710537  0.09615148     0.14700
H1313       H  0.71213703  0.17592857  0.17961853     0.14700
C1314       C  0.78332952  0.18060071  0.20715822    -0.24300
H1315       H  0.74350706  0.23514519  0.04296269     0.04900
H1316       H  0.72389676  0.27839331  0.06460882     0.08100
H1317       H  0.69515150  0.23611243  0.05703536     0.08100
H1318       H  0.81314217  0.18841245  0.21377948     0.08100
H1319       H  0.78238917  0.14891168  0.20332205     0.08100
H1320       H  0.76534269  0.18932888  0.23206878     0.04900
C1321       C  0.63890922  0.03319761  0.92602747    -0.20900
C1322       C  0.63913905  0.06996581  0.94340420    -0.07500
C1323       C  0.60300610  0.08956458  0.94394176     0.13400
C1324       C  0.57606668  0.08146002  0.91467293    -0.21000
C1325       C  0.58453277  0.05346587  0.88610049    -0.07500
C1326       C  0.61066888  0.02411539  0.89846429     0.13400
C1327       C  0.60908659  0.98358656  0.88323430    -0.24300
H1328       H  0.66316048  0.01376953  0.92979618     0.14700
H1329       H  0.55178039  0.10083144  0.91080536     0.14700
C1330       C  0.59142934  0.11712438  0.97562958    -0.24300
H1331       H  0.60313369  0.96382686  0.90742221     0.04900
H1332       H  0.63687016  0.97476231  0.87023797     0.08100
H1333       H  0.58605238  0.98059346  0.86147561     0.08100
H1334       H  0.61406693  0.11949454  0.99789529     0.08100
H1335       H  0.56552629  0.10639754  0.99010091     0.08100
H1336       H  0.58455779  0.14595367  0.96351969     0.04900
C1337       C  0.67153235  0.38445377  0.85384741    -0.20900
C1338       C  0.70636236  0.36434984  0.85131175    -0.07500
C1339       C  0.71302369  0.33734050  0.82133618     0.13400
C1340       C  0.68355825  0.32976613  0.79542088    -0.21000
C1341       C  0.64836778  0.34904559  0.79879346    -0.07500
C1342       C  0.64219907  0.37700047  0.82779563     0.13400
C1343       C  0.60431432  0.39772690  0.83222306    -0.24300
H1344       H  0.66654805  0.40424886  0.87770035     0.14700
H1345       H  0.68763382  0.30824483  0.77292955     0.14700
C1346       C  0.75049897  0.31561843  0.81732267    -0.24300
H1347       H  0.58195955  0.37678511  0.83922577     0.04900
H1348       H  0.59675732  0.41272480  0.80500991     0.08100
H1349       H  0.60488925  0.41945646  0.85583238     0.08100
H1350       H  0.75599333  0.29771226  0.84310296     0.08100
H1351       H  0.77406017  0.33615631  0.81384136     0.08100
H1352       H  0.75061710  0.29615675  0.79180300     0.04900
C1353       C  0.71196926  0.25336382  0.90609523    -0.20900
C1354       C  0.74241802  0.26811418  0.92746870    -0.07500
C1355       C  0.75816369  0.24661956  0.95833436     0.13400
C1356       C  0.74334099  0.21061030  0.96618323    -0.21000
C1357       C  0.71353547  0.19555945  0.94428829    -0.07500
C1358       C  0.69671898  0.21769512  0.91468746     0.13400
C1359       C  0.66343974  0.20371968  0.89150313    -0.24300
H1360       H  0.69957528  0.27017098  0.88284315     0.14700
H1361       H  0.75611101  0.19326962  0.98872617     0.14700
C1362       C  0.79015660  0.26103871  0.98344933    -0.24300
H1363       H  0.65679152  0.22276747  0.86668251     0.04900
H1364       H  0.63768716  0.20288545  0.90998457     0.08100
H1365       H  0.66999252  0.17453814  0.88038837     0.08100
H1366       H  0.78211709  0.28933196  0.99645252     0.08100
H1367       H  0.81659495  0.26324341  0.96635718     0.08100
H1368       H  0.79730240  0.24089445  0.00721214     0.04900
C1369       C  0.14136230  0.16553918  0.93438910    -0.20900
C1370       C  0.14592173  0.19598946  0.90876316    -0.07500
C1371       C  0.17978050  0.19889034  0.88711969     0.13400
C1372       C  0.20826284  0.17062545  0.89112211    -0.21000
C1373       C  0.20251884  0.13885251  0.91465181    -0.07500
C1374       C  0.16927131  0.13641411  0.93719547     0.13400
C1375       C  0.16277063  0.10259848  0.96312780    -0.24300
H1376       H  0.11511683  0.16361393  0.95071292     0.14700
H1377       H  0.23370675  0.17160261  0.87346420     0.14700
C1378       C  0.18464443  0.22961880  0.85743764    -0.24300
H1379       H  0.16088901  0.07589767  0.94566921     0.04900
H1380       H  0.13581690  0.10602820  0.97970171     0.08100
H1381       H  0.18672331  0.09967172  0.98393873     0.08100
H1382       H  0.18053052  0.25856106  0.87056807     0.08100
H1383       H  0.16333969  0.22511334  0.83443942     0.08100
H1384       H  0.21335087  0.22819614  0.84393453     0.04900
C1385       C  0.08079146  0.35449195  0.90027346    -0.20900
C1386       C  0.07723709  0.32243990  0.92501828    -0.07500
C1387       C  0.09386198  0.32751226  0.96198339     0.13400
C1388       C  0.12415053  0.35351486  0.96645114    -0.21000
C1389       C  0.13872072  0.37346498  0.93429401    -0.07500
C1390       C  0.11208481  0.37941138  0.90385715     0.13400
C1391       C  0.11810621  0.40864605  0.87272355    -0.24300
H1392       H  0.06238008  0.35758068  0.87541767     0.14700
H1393       H  0.13862813  0.35452113  0.99394230     0.14700
C1394       C  0.08365849  0.30239144  0.99539395    -0.24300
H1395       H  0.12166574  0.39391490  0.84440316     0.04900
H1396       H  0.14344240  0.42633720  0.87821171     0.08100
H1397       H  0.09287518  0.42839194  0.87125116     0.08100
H1398       H  0.07428212  0.32074964  0.02006135     0.08100
H1399       H  0.10891360  0.28481126  0.00430039     0.08100
H1400       H  0.06008610  0.28285530  0.98806756     0.04900
C1401       C  0.12605212  0.12548694  0.57450483    -0.20900
C1402       C  0.10252444  0.13154745  0.60715959    -0.07500
C1403       C  0.09571913  0.09782308  0.62901058     0.13400
C1404       C  0.12281132  0.06704869  0.62807521    -0.21000
C1405       C  0.15614342  0.06970003  0.60546468    -0.07500
C1406       C  0.15131974  0.09329439  0.57249036     0.13400
C1407       C  0.17396528  0.08581150  0.53632707    -0.24300
H1408       H  0.12748721  0.14739797  0.55251043     0.14700
H1409       H  0.12108161  0.04462921  0.64954703     0.14700
C1410       C  0.06122194  0.09441246  0.65433115    -0.24300
H1411       H  0.19365729  0.06062227  0.53978467     0.04900
H1412       H  0.19071456  0.11141037  0.52862618     0.08100
H1413       H  0.15410848  0.07959844  0.51223076     0.08100
H1414       H  0.04407545  0.06979166  0.64425321     0.08100
H1415       H  0.04281487  0.12074563  0.65328234     0.08100
H1416       H  0.07014158  0.08888954  0.68452088     0.04900
C1417       C  0.20041919  0.31480180  0.62499850    -0.20900
C1418       C  0.22469489  0.30583313  0.65592486    -0.07500
C1419       C  0.21945325  0.27212410  0.67752193     0.13400
C1420       C  0.19039394  0.24739343  0.66668045    -0.21000
C1421       C  0.16553363  0.25682676  0.63632843    -0.07500
C1422       C  0.17011029  0.29098248  0.61554842     0.13400
C1423       C  0.14212435  0.30292462  0.58471306    -0.24300
H1424       H  0.20414915  0.34144579  0.60947033     0.14700
H1425       H  0.18601021  0.22139730  0.68308403     0.14700
C1426       C  0.24391077  0.26140183  0.71175272    -0.24300
H1427       H  0.14986410  0.33068499  0.57140469     0.04900
H1428       H  0.11317897  0.30640939  0.59741421     0.08100
H1429       H  0.14150298  0.28057542  0.56172205     0.08100
H1430       H  0.22598477  0.26057426  0.73810283     0.08100
H1431       H  0.26724923  0.28183441  0.71674132     0.08100
H1432       H  0.25716971  0.23248803  0.70695426     0.04900
C1433       C  0.11894505  0.24339067  0.74503903    -0.20900
C1434       C  0.09799373  0.21319680  0.72925638    -0.07500
C1435       C  0.06937870  0.19580581  0.75139486     0.13400
C1436       C  0.06361564  0.20825356  0.78921596    -0.21000
C1437       C  0.08520063  0.23774918  0.80531972    -0.07500
C1438       C  0.11291245  0.25629265  0.78267522     0.13400
C1439       C  0.13751048  0.28887731  0.79649848    -0.24300
H1440       H  0.14006542  0.25752170  0.72764949     0.14700
H1441       H  0.04182075  0.19493787  0.80639969     0.14700
C1442       C  0.04362495  0.16541322  0.73530458    -0.24300
H1443       H  0.16795641  0.28196425  0.79022106     0.04900
H1444       H  0.13580556  0.29452078  0.82775011     0.08100
H1445       H  0.12940857  0.31562474  0.78090634     0.08100
H1446       H  0.06038003  0.13875832  0.72942922     0.08100
H1447       H  0.02947087  0.17586230  0.70858490     0.08100
H1448       H  0.02097686  0.15769000  0.75603905     0.04900
C1449       C  0.78902877  0.39803462  0.74382790    -0.20900
C1450       C  0.82656984  0.39838780  0.72986300    -0.07500
C1451       C  0.83307938  0.40218061  0.69005446     0.13400
C1452       C  0.80255895  0.39760144  0.66478007    -0.21000
C1453       C  0.76602920  0.38980580  0.67873671    -0.07500
C1454       C  0.75834276  0.39418639  0.71846029     0.13400
C1455       C  0.71870365  0.39189036  0.73459764    -0.24300
H1456       H  0.78387256  0.39661943  0.77458480     0.14700
H1457       H  0.80793305  0.39696237  0.63404120     0.14700
C1458       C  0.87205171  0.40903293  0.67355323    -0.24300
H1459       H  0.71863446  0.39515697  0.76642227     0.04900
H1460       H  0.70623804  0.36378588  0.72690340     0.08100
H1461       H  0.70063906  0.41575182  0.72318146     0.08100
H1462       H  0.88130345  0.38392252  0.65570079     0.08100
H1463       H  0.89364399  0.41400817  0.69633299     0.08100
H1464       H  0.87091629  0.43505336  0.65514925     0.04900
C1465       C  0.83698707  0.41755527  0.90162590    -0.20900
C1466       C  0.83071120  0.38246050  0.92059982    -0.07500
C1467       C  0.86302768  0.35695768  0.92122412     0.13400
C1468       C  0.88953477  0.35778840  0.89049724    -0.21000
C1469       C  0.88612489  0.38606807  0.86158237    -0.07500
C1470       C  0.86601461  0.42010747  0.87347204     0.13400
C1471       C  0.87447959  0.45869761  0.85647335    -0.24300
H1472       H  0.81659422  0.44115932  0.90497914     0.14700
H1473       H  0.90978770  0.33408906  0.88689083     0.14700
C1474       C  0.87010007  0.32945079  0.95388483    -0.24300
H1475       H  0.88428864  0.47826190  0.87972213     0.04900
H1476       H  0.84843175  0.47161977  0.84322877     0.08100
H1477       H  0.89739938  0.45632525  0.83444652     0.08100
H1478       H  0.84707414  0.33167722  0.97580780     0.08100
H1479       H  0.89740595  0.33654465  0.96824225     0.08100
H1480       H  0.87243992  0.29944068  0.94285934     0.04900
C1481       C  0.83175929  0.02674772  0.65734357    -0.20900
C1482       C  0.82346954  0.05669164  0.63095812    -0.07500
C1483       C  0.85506402  0.08003709  0.62286810     0.13400
C1484       C  0.88267998  0.08551890  0.65216431    -0.21000
C1485       C  0.87850635  0.06769612  0.68859526    -0.07500
C1486       C  0.85792878  0.03293014  0.68769426     0.13400
C1487       C  0.86059165  0.00403212  0.71971080    -0.24300
H1488       H  0.81380347  0.00180776  0.65841772     0.14700
H1489       H  0.90421716  0.10696221  0.64810229     0.14700
C1490       C  0.85648085  0.10273207  0.58610800    -0.24300
H1491       H  0.86962629  0.97562106  0.70766645     0.04900
H1492       H  0.83232301  0.00118195  0.73369678     0.08100
H1493       H  0.88171540  0.01238757  0.74188869     0.08100
H1494       H  0.83120978  0.12222468  0.58347216     0.08100
H1495       H  0.85692872  0.08259514  0.56113030     0.08100
H1496       H  0.88244344  0.12046162  0.58481406     0.04900
C1497       C  0.76035521  0.13723429  0.84989609    -0.20900
C1498       C  0.75873804  0.10348885  0.87169532    -0.07500
C1499       C  0.78354842  0.07222066  0.86330940     0.13400
C1500       C  0.80947368  0.07524715  0.83280250    -0.21000
C1501       C  0.81163997  0.10921515  0.81136010    -0.07500
C1502       C  0.78665766  0.14052011  0.81972649     0.13400
C1503       C  0.78763329  0.17724936  0.79700749    -0.24300
H1504       H  0.74148632  0.16130546  0.85705621     0.14700
H1505       H  0.82909126  0.05155038  0.82648262     0.14700
C1506       C  0.78356458  0.03636856  0.88745391    -0.24300
H1507       H  0.76503089  0.19809616  0.80641633     0.04900
H1508       H  0.78321328  0.17088638  0.76591982     0.08100
H1509       H  0.81550658  0.19115760  0.80118146     0.08100
H1510       H  0.80523136  0.01487416  0.87732792     0.08100
H1511       H  0.75513048  0.02295440  0.88596326     0.08100
H1512       H  0.79010543  0.04380160  0.91792148     0.04900
C1513       C  0.85190459  0.22053168  0.73471966    -0.20900
C1514       C  0.88315397  0.20017141  0.75037788    -0.07500
C1515       C  0.91177999  0.21994265  0.77042238     0.13400
C1516       C  0.90602754  0.25875782  0.77883574    -0.21000
C1517       C  0.87328859  0.27859916  0.76609361    -0.07500
C1518       C  0.84674208  0.25996406  0.74211305     0.13400
C1519       C  0.81235752  0.28031082  0.72510173    -0.24300
H1520       H  0.83042565  0.20523529  0.71850337     0.14700
H1521       H  0.92764543  0.27391651  0.79501709     0.14700
C1522       C  0.94909631  0.20139883  0.78235150    -0.24300
H1523       H  0.78602807  0.26577589  0.73439834     0.04900
H1524       H  0.81409779  0.27910610  0.69314731     0.08100
H1525       H  0.80989836  0.31092614  0.73402652     0.08100
H1526       H  0.95218863  0.17132946  0.77199237     0.08100
H1527       H  0.95181569  0.20219359  0.81422396     0.08100
H1528       H  0.97298123  0.21763128  0.76974097     0.04900
C1529       C  0.91194616  0.30641931  0.34839842    -0.20900
C1530       C  0.89014782  0.30495030  0.31470342    -0.07500
C1531       C  0.86889987  0.27198810  0.30561331     0.13400
C1532       C  0.86776686  0.24228531  0.33231452    -0.21000
C1533       C  0.88751299  0.24484187  0.36717201    -0.07500
C1534       C  0.91121338  0.27629561  0.37476198     0.13400
C1535       C  0.93497676  0.27935873  0.41079662    -0.24300
H1536       H  0.92836361  0.33180452  0.35484753     0.14700
H1537       H  0.84968759  0.21789292  0.32698767     0.14700
C1538       C  0.84544030  0.26892924  0.26923340    -0.24300
H1539       H  0.92571528  0.30516079  0.42761807     0.04900
H1540       H  0.96540570  0.28237298  0.40274754     0.08100
H1541       H  0.93296240  0.25363513  0.42937262     0.08100
H1542       H  0.86406501  0.27092509  0.24352285     0.08100
H1543       H  0.82341624  0.29222877  0.26850698     0.08100
H1544       H  0.83052763  0.24106859  0.26739100     0.04900
C1545       C  0.92948806  0.35522317  0.18086947    -0.20900
C1546       C  0.89450769  0.37419070  0.18957562    -0.07500
C1547       C  0.86767012  0.37405427  0.15887481     0.13400
C1548       C  0.86827308  0.34300209  0.13223886    -0.21000
C1549       C  0.89659998  0.31359565  0.13495447    -0.07500
C1550       C  0.93097387  0.32544215  0.15286760     0.13400
C1551       C  0.96893390  0.30719917  0.14282254    -0.24300
H1552       H  0.95392657  0.35941161  0.19948192     0.14700
H1553       H  0.84407713  0.33918955  0.11321909     0.14700
C1554       C  0.83880556  0.40619711  0.15396782    -0.24300
H1555       H  0.98272924  0.29492653  0.16894787     0.04900
H1556       H  0.98782460  0.32945352  0.13091568     0.08100
H1557       H  0.96586661  0.28423245  0.12067729     0.08100
H1558       H  0.84162458  0.42826936  0.17705117     0.08100
H1559       H  0.80946659  0.39479088  0.15413702     0.08100
H1560       H  0.84355534  0.42040762  0.12585147     0.04900
C1561       C  0.65824477  0.27160553  0.21162458    -0.20900
C1562       C  0.62360062  0.26710800  0.19206869    -0.07500
C1563       C  0.59098301  0.28860187  0.20344358     0.13400
C1564       C  0.59346855  0.31336764  0.23520962    -0.21000
C1565       C  0.62810349  0.31805608  0.25468578    -0.07500
C1566       C  0.66110171  0.29739492  0.24261461     0.13400
C1567       C  0.69905676  0.30201479  0.26245262    -0.24300
H1568       H  0.68321143  0.25520595  0.20226640     0.14700
H1569       H  0.56864296  0.33030501  0.24406164     0.14700
C1570       C  0.55425208  0.28701154  0.18093371    -0.24300
H1571       H  0.72088566  0.28127520  0.25114518     0.04900
H1572       H  0.69610374  0.29714466  0.29385700     0.08100
H1573       H  0.70982578  0.33133671  0.25769971     0.08100
H1574       H  0.54269376  0.25757564  0.18180502     0.08100
H1575       H  0.55952890  0.29509601  0.15049003     0.08100
H1576       H  0.53221330  0.30715056  0.19287029     0.04900
C1577       C  0.59694085  0.38382789  0.41486357    -0.20900
C1578       C  0.58072377  0.37897031  0.37775097    -0.07500
C1579       C  0.54827940  0.35504391  0.37681952     0.13400
C1580       C  0.54397676  0.32684215  0.40576590    -0.21000
C1581       C  0.57205388  0.32176422  0.43478994    -0.07500
C1582       C  0.59193952  0.35583396  0.44383153     0.13400
C1583       C  0.61074426  0.36104402  0.48247172    -0.24300
H1584       H  0.61618294  0.40716376  0.42044038     0.14700
H1585       H  0.52244785  0.30520945  0.40188587     0.14700
C1586       C  0.52036632  0.35609061  0.34387114    -0.24300
H1587       H  0.59872170  0.38724261  0.49676373     0.04900
H1588       H  0.64195440  0.36450621  0.47898341     0.08100
H1589       H  0.60569224  0.33607332  0.50147409     0.08100
H1590       H  0.52068404  0.32794933  0.32852950     0.08100
H1591       H  0.52696537  0.37901165  0.32297919     0.08100
H1592       H  0.49123189  0.36193673  0.35526168     0.04900
C1593       C  0.72773543  0.41730524  0.28745327    -0.20900
C1594       C  0.71257469  0.39432558  0.31638327    -0.07500
C1595       C  0.73613336  0.36667556  0.33473481     0.13400
C1596       C  0.77263750  0.35904137  0.31981096    -0.21000
C1597       C  0.78640206  0.37953406  0.28812486    -0.07500
C1598       C  0.76446879  0.41071678  0.27329724     0.13400
C1599       C  0.77910382  0.43740953  0.24278017    -0.24300
H1600       H  0.70945687  0.43850447  0.27355431     0.14700
H1601       H  0.79032994  0.33658389  0.33258475     0.14700
C1602       C  0.72264586  0.34437288  0.36895901    -0.24300
H1603       H  0.75956072  0.46238882  0.23825559     0.04900
H1604       H  0.78118348  0.42223446  0.21473798     0.08100
H1605       H  0.80723097  0.44881533  0.25138293     0.08100
H1606       H  0.69678582  0.32810976  0.36130726     0.08100
H1607       H  0.71615143  0.36440031  0.39320901     0.08100
H1608       H  0.74493693  0.32384493  0.37926601     0.04900
C1609       C  0.72408399  0.56829131  0.32509222    -0.20900
C1610       C  0.74629242  0.59600144  0.34351078    -0.07500
C1611       C  0.77559612  0.61394106  0.32282547     0.13400
C1612       C  0.78132123  0.60401031  0.28389785    -0.21000
C1613       C  0.75832866  0.57670624  0.26537701    -0.07500
C1614       C  0.73004232  0.55799775  0.28680002     0.13400
C1615       C  0.70668980  0.52559139  0.27135798    -0.24300
H1616       H  0.70278921  0.55297605  0.34129603     0.14700
H1617       H  0.80276022  0.61891515  0.26753005     0.14700
C1618       C  0.80012753  0.64458161  0.34033735    -0.24300
H1619       H  0.70737925  0.50159450  0.29226355     0.04900
H1620       H  0.71807179  0.51394231  0.24403199     0.08100
H1621       H  0.67661951  0.53546835  0.26761784     0.08100
H1622       H  0.79737855  0.67106241  0.32285527     0.08100
H1623       H  0.83043840  0.63468778  0.34034388     0.08100
H1624       H  0.79177196  0.65232962  0.37025595     0.04900
C1625       C  0.69175145  0.64432766  0.12704720    -0.20900
C1626       C  0.71000998  0.64049871  0.16290210    -0.07500
C1627       C  0.69995715  0.66548909  0.19364581     0.13400
C1628       C  0.66990206  0.69183944  0.18871956    -0.21000
C1629       C  0.65043193  0.69444529  0.15361380    -0.07500
C1630       C  0.66195066  0.67137785  0.12196190     0.13400
C1631       C  0.64213707  0.67447427  0.08353964    -0.24300
H1632       H  0.69987350  0.62516636  0.10353071     0.14700
H1633       H  0.66115472  0.71022511  0.21260623     0.14700
C1634       C  0.72076858  0.66480697  0.23161159    -0.24300
H1635       H  0.64551543  0.70384009  0.07180659     0.04900
H1636       H  0.61130950  0.66865928  0.08698649     0.08100
H1637       H  0.65422253  0.65359041  0.06223794     0.08100
H1638       H  0.71188368  0.68931115  0.25050885     0.08100
H1639       H  0.75196606  0.66671770  0.22670331     0.08100
H1640       H  0.71420023  0.63811056  0.24718181     0.04900
C1641       C  0.61629780  0.63330653  0.47932223    -0.20900
C1642       C  0.59884745  0.63694026  0.44275453    -0.07500
C1643       C  0.60060608  0.60291299  0.41966449     0.13400
C1644       C  0.63109860  0.57616283  0.42509181    -0.21000
C1645       C  0.65903330  0.58305572  0.45354832    -0.07500
C1646       C  0.64584360  0.60569935  0.48529785     0.13400
C1647       C  0.66176691  0.60067784  0.52525172    -0.24300
H1648       H  0.61089262  0.65511549  0.50122322     0.14700
H1649       H  0.63642690  0.55423093  0.40328866     0.14700
C1650       C  0.57083928  0.59430493  0.38975370    -0.24300
H1651       H  0.63857007  0.59199580  0.54494304     0.04900
H1652       H  0.67344494  0.62818954  0.53606015     0.08100
H1653       H  0.68438820  0.57786171  0.52591985     0.08100
H1654       H  0.54849568  0.61737903  0.38867930     0.08100
H1655       H  0.55674603  0.56701212  0.39716687     0.08100
H1656       H  0.58421328  0.59077586  0.36090083     0.04900
C1657       C  0.61909158  0.75012857  0.30740415    -0.20900
C1658       C  0.59547127  0.72219955  0.32327606    -0.02700
C1659       C  0.56506337  0.70746502  0.30135936     0.13400
C1660       C  0.55955339  0.72056854  0.26392757    -0.21000
C1661       C  0.58440943  0.74658840  0.24729526    -0.07500
C1662       C  0.61405032  0.76243863  0.26938844     0.13400
C1663       C  0.64060142  0.79164429  0.25305320    -0.24300
H1664       H  0.64137909  0.76255753  0.32490492     0.14700
H1665       H  0.53634709  0.70939177  0.24692000     0.14700
C1666       C  0.53794046  0.67833667  0.31699665    -0.24300
H1667       H  0.66417658  0.79808304  0.27333616     0.04900
H1668       H  0.62477748  0.81898501  0.24753181     0.08100
H1669       H  0.65302684  0.78073254  0.22564701     0.08100
H1670       H  0.55313796  0.65054844  0.32173844     0.08100
H1671       H  0.51450822  0.67253116  0.29635782     0.08100
H1672       H  0.52529582  0.68887430  0.34449978     0.04900
C1673       C  0.34747151  0.56325427  0.21671455    -0.20900
C1674       C  0.33354655  0.56738967  0.25434061    -0.07500
C1675       C  0.29460123  0.56113566  0.26172901     0.13400
C1676       C  0.26942018  0.55896126  0.23053562    -0.21000
C1677       C  0.28302551  0.55924141  0.19248697    -0.07500
C1678       C  0.32266836  0.55703080  0.18594094     0.13400
C1679       C  0.33949386  0.54774548  0.14716342    -0.24300
H1680       H  0.37782589  0.56532732  0.21125317     0.14700
H1681       H  0.23900265  0.55906848  0.23604842     0.14700
C1682       C  0.27913667  0.55822164  0.30192944    -0.24300
H1683       H  0.36038617  0.52347259  0.14980095     0.04900
H1684       H  0.35422951  0.57324588  0.13628001     0.08100
H1685       H  0.31754946  0.53865107  0.12625464     0.08100
H1686       H  0.28614620  0.58437969  0.31866112     0.08100
H1687       H  0.29128598  0.53234927  0.31625674     0.08100
H1688       H  0.24783973  0.55459794  0.30178081     0.04900
C1689       C  0.37696154  0.53976889  0.39613159    -0.20900
C1690       C  0.39867891  0.57201960  0.38571725    -0.07500
C1691       C  0.40475656  0.59792851  0.41689759     0.13400
C1692       C  0.37639103  0.60220237  0.44578982    -0.21000
C1693       C  0.34393977  0.57870916  0.44532126    -0.07500
C1694       C  0.34968081  0.54271342  0.42619982     0.13400
C1695       C  0.32432890  0.50919425  0.43368887    -0.24300
H1696       H  0.37750972  0.51423915  0.37808831     0.14700
H1697       H  0.37792397  0.62613095  0.46581868     0.14700
C1698       C  0.43870388  0.62351652  0.41789548    -0.24300
H1699       H  0.34211086  0.48392493  0.44238666     0.04900
H1700       H  0.30826382  0.50174525  0.40715277     0.08100
H1701       H  0.30372895  0.51558718  0.45722150     0.08100
H1702       H  0.45669842  0.61954203  0.39178130     0.08100
H1703       H  0.45633853  0.61641432  0.44357934     0.08100
H1704       H  0.42918534  0.65402713  0.42035926     0.04900
C1705       C  0.26400396  0.88610017  0.33552317    -0.20900
C1706       C  0.27466635  0.89386875  0.37347359    -0.07500
C1707       C  0.31274012  0.90262964  0.38238253     0.13400
C1708       C  0.34040918  0.89811671  0.35376059    -0.21000
C1709       C  0.33024778  0.88630163  0.31656147    -0.07500
C1710       C  0.29139290  0.88222285  0.30672607     0.13400
C1711       C  0.27835032  0.87113049  0.26698552    -0.24300
H1712       H  0.23451083  0.87966785  0.32906013     0.14700
H1713       H  0.37020231  0.90206592  0.36093341     0.14700
C1714       C  0.32492321  0.91563069  0.42189299    -0.24300
H1715       H  0.24795264  0.86318156  0.26713443     0.04900
H1716       H  0.29492274  0.84610238  0.25576586     0.08100
H1717       H  0.28127892  0.89596370  0.24744400     0.08100
H1718       H  0.34485087  0.89395875  0.43456892     0.08100
H1719       H  0.30029385  0.92014963  0.44153180     0.08100
H1720       H  0.33968878  0.94349741  0.41963208     0.04900
C1721       C  0.34522858  0.90251834  0.14466607    -0.20900
C1722       C  0.34097687  0.86712666  0.12503482    -0.07500
C1723       C  0.37454777  0.84333468  0.12536129     0.13400
C1724       C  0.39889566  0.84426424  0.15792696    -0.21000
C1725       C  0.39354375  0.87263636  0.18679751    -0.07500
C1726       C  0.37297120  0.90607767  0.17419670     0.13400
C1727       C  0.37974464  0.94504875  0.19175380    -0.24300
H1728       H  0.32406749  0.92531027  0.14084673     0.14700
H1729       H  0.41979270  0.82128884  0.16210421     0.14700
C1730       C  0.38547935  0.81825069  0.09146697    -0.24300
H1731       H  0.38997150  0.96469986  0.16905050     0.04900
H1732       H  0.40181466  0.94345723  0.21473184     0.08100
H1733       H  0.35288795  0.95739851  0.20394220     0.08100
H1734       H  0.41296728  0.82803134  0.07950504     0.08100
H1735       H  0.36367347  0.82015442  0.06824158     0.08100
H1736       H  0.38928093  0.78782433  0.10051190     0.04900
C1737       C  0.40692879  0.74976956  0.30374232    -0.20900
C1738       C  0.37572537  0.76695573  0.28528227    -0.07500
C1739       C  0.34259547  0.74561565  0.27860216     0.13400
C1740       C  0.34303415  0.70602683  0.28662249    -0.21000
C1741       C  0.37483706  0.68858234  0.30427632    -0.07500
C1742       C  0.40660878  0.71112685  0.31422813     0.13400
C1743       C  0.44056963  0.69490373  0.33550111    -0.24300
H1744       H  0.43185934  0.76670823  0.30977833     0.14700
H1745       H  0.31830002  0.68891002  0.28009687     0.14700
C1746       C  0.30627994  0.76516955  0.26589485    -0.24300
H1747       H  0.45246325  0.66945758  0.32002450     0.04900
H1748       H  0.43185678  0.68680135  0.36484248     0.08100
H1749       H  0.46336953  0.71639818  0.33868341     0.08100
H1750       H  0.31114485  0.78195124  0.23962659     0.08100
H1751       H  0.29663691  0.78584618  0.28835942     0.08100
H1752       H  0.28332536  0.74418622  0.26076891     0.04900
C1753       C  0.11856827  0.52600747  0.18570438    -0.20900
C1754       C  0.09858387  0.56122095  0.19206205    -0.07500
C1755       C  0.09430682  0.58444618  0.15862209     0.13400
C1756       C  0.12139145  0.58084930  0.12848164    -0.21000
C1757       C  0.15225638  0.55421137  0.13131617    -0.07500
C1758       C  0.14443305  0.52181072  0.15458865     0.13400
C1759       C  0.16481600  0.48380965  0.14831959    -0.24300
H1760       H  0.11769514  0.50366991  0.20731921     0.14700
H1761       H  0.12165096  0.60254859  0.10617771     0.14700
C1762       C  0.06225564  0.61355494  0.15478790    -0.24300
H1763       H  0.14358367  0.46147739  0.14154008     0.04900
H1764       H  0.18056538  0.47505638  0.17473449     0.08100
H1765       H  0.18514625  0.48522596  0.12384825     0.08100
H1766       H  0.04326992  0.61342250  0.18038669     0.08100
H1767       H  0.04483389  0.60638398  0.12907801     0.08100
H1768       H  0.07375785  0.64281562  0.15093498     0.04900
C1769       C  0.19263167  0.60932256  0.31412045    -0.20900
C1770       C  0.16778807  0.57860688  0.31778149    -0.07500
C1771       C  0.17105405  0.55333141  0.34911818     0.13400
C1772       C  0.19804275  0.56090463  0.37779401    -0.21000
C1773       C  0.22025069  0.59392509  0.37587531    -0.07500
C1774       C  0.21781495  0.61837620  0.34376011     0.13400
C1775       C  0.24065140  0.65449570  0.34127210    -0.24300
H1776       H  0.19050398  0.62762203  0.28901563     0.14700
H1777       H  0.20072354  0.54208534  0.40250914     0.14700
C1778       C  0.14541284  0.51932861  0.35259324    -0.24300
H1779       H  0.23640019  0.66929175  0.31325123     0.04900
H1780       H  0.27154566  0.64774460  0.34464426     0.08100
H1781       H  0.23114223  0.67459409  0.36438764     0.08100
H1782       H  0.14929903  0.50021625  0.32705339     0.08100
H1783       H  0.11517144  0.52931218  0.35408643     0.08100
H1784       H  0.15192842  0.50232531  0.37888258     0.04900
C1785       C  0.20288706  0.88452573  0.20360779    -0.20900
C1786       C  0.21723273  0.84729637  0.19534177    -0.07500
C1787       C  0.20487211  0.81578145  0.21705275     0.13400
C1788       C  0.17704858  0.82186807  0.24493834    -0.21000
C1789       C  0.15988394  0.85811953  0.25076589    -0.07500
C1790       C  0.17404182  0.89033931  0.23131407     0.13400
C1791       C  0.15794916  0.93018004  0.23857031    -0.24300
H1792       H  0.21318465  0.90871597  0.18731562     0.14700
H1793       H  0.16691869  0.79737904  0.26063736     0.14700
C1794       C  0.22006311  0.77539657  0.21083412    -0.24300
H1795       H  0.17167447  0.95179466  0.21995742     0.04900
H1796       H  0.16295764  0.93859935  0.26904614     0.08100
H1797       H  0.12684644  0.93090660  0.23254829     0.08100
H1798       H  0.25142334  0.77565584  0.20805438     0.08100
H1799       H  0.20739639  0.76272135  0.18453230     0.08100
H1800       H  0.21294725  0.75631194  0.23527001     0.04900
C1801       C  0.10398581  0.91628709  0.37938958    -0.20900
C1802       C  0.08528274  0.88117165  0.37347570    -0.07500
C1803       C  0.08376016  0.85767191  0.40688899     0.13400
C1804       C  0.11397669  0.85899537  0.43394811    -0.21000
C1805       C  0.14292451  0.88637115  0.43006416    -0.07500
C1806       C  0.13169655  0.91968322  0.40882009     0.13400
C1807       C  0.14882531  0.95833085  0.41646742    -0.24300
H1808       H  0.10083349  0.93903532  0.35832883     0.14700
H1809       H  0.11726415  0.83606072  0.45477908     0.14700
C1810       C  0.05181419  0.83008762  0.41298144    -0.24300
H1811       H  0.12595130  0.97894612  0.42563248     0.04900
H1812       H  0.16220350  0.96953650  0.38990934     0.08100
H1813       H  0.17044033  0.95671427  0.43986715     0.08100
H1814       H  0.03111424  0.83119903  0.38871448     0.08100
H1815       H  0.03638069  0.83804216  0.43989398     0.08100
H1816       H  0.06315480  0.80020638  0.41596643     0.04900
C1817       C  0.13474283  0.69799685  0.29782603    -0.20900
C1818       C  0.10601459  0.68121882  0.27547122    -0.07500
C1819       C  0.07399646  0.70347903  0.26395252     0.13400
C1820       C  0.07219287  0.74222541  0.27403078    -0.21000
C1821       C  0.10177256  0.75946915  0.29436475    -0.07500
C1822       C  0.13345870  0.73724902  0.30693879     0.13400
C1823       C  0.16646030  0.75374436  0.32917358    -0.24300
H1824       H  0.15837176  0.68066766  0.30821411     0.14700
H1825       H  0.04721955  0.75918483  0.26631905     0.14700
C1826       C  0.04090153  0.68648099  0.24239012    -0.24300
H1827       H  0.19342272  0.74795217  0.31318909     0.04900
H1828       H  0.16858196  0.73982841  0.35785260     0.08100
H1829       H  0.16387622  0.78525416  0.33369414     0.08100
H1830       H  0.02928522  0.66205159  0.25878547     0.08100
H1831       H  0.05028351  0.67648328  0.21349508     0.08100
H1832       H  0.01743754  0.70794990  0.23798127     0.04900
C1833       C  0.89596490  0.58326110  0.15735575    -0.20900
C1834       C  0.89211631  0.61464356  0.13183988    -0.07500
C1835       C  0.86831334  0.60691766  0.09957204     0.13400
C1836       C  0.83686582  0.58253978  0.10440388    -0.21000
C1837       C  0.83189581  0.56292080  0.13950736    -0.07500
C1838       C  0.86615217  0.55662827  0.16081898     0.13400
C1839       C  0.87135649  0.52268779  0.18718213    -0.24300
H1840       H  0.91871955  0.58296765  0.17853656     0.14700
H1841       H  0.81418621  0.58294190  0.08315085     0.14700
C1842       C  0.87424534  0.62627199  0.06145333    -0.24300
H1843       H  0.89576172  0.50456537  0.17690589     0.04900
H1844       H  0.84560582  0.50457885  0.18742535     0.08100
H1845       H  0.87764574  0.53249826  0.21700989     0.08100
H1846       H  0.84820391  0.64270087  0.05272114     0.08100
H1847       H  0.88042440  0.60404183  0.03907722     0.08100
H1848       H  0.89869531  0.64608296  0.06279580     0.04900
C1849       C  0.85551306  0.66170574  0.46378937    -0.20900
C1850       C  0.84241450  0.69930127  0.45633449    -0.07500
C1851       C  0.80298063  0.70824773  0.45932955     0.13400
C1852       C  0.77748328  0.67815194  0.46306696    -0.21000
C1853       C  0.79065417  0.63988652  0.46383580    -0.07500
C1854       C  0.82998426  0.63168695  0.46734557     0.13400
C1855       C  0.84581259  0.59146045  0.47258079    -0.24300
H1856       H  0.88585227  0.65511672  0.46332764     0.14700
H1857       H  0.74709975  0.68428062  0.46117573     0.14700
C1858       C  0.78696702  0.74850877  0.45556808    -0.24300
H1859       H  0.86317056  0.58297043  0.44705048     0.04900
H1860       H  0.86422349  0.59052693  0.49863864     0.08100
H1861       H  0.82308115  0.57013404  0.47655846     0.08100
H1862       H  0.79529186  0.76091551  0.42746840     0.08100
H1863       H  0.79705589  0.76666100  0.47973161     0.08100
H1864       H  0.75542554  0.74900719  0.45759139     0.04900
C1865       C  0.90532554  0.69591823  0.31487028    -0.20900
C1866       C  0.87626067  0.72048312  0.32880321    -0.07500
C1867       C  0.84664219  0.73257837  0.30387816     0.13400
C1868       C  0.84834200  0.72209906  0.26478889    -0.21000
C1869       C  0.87837199  0.69883747  0.25067187    -0.07500
C1870       C  0.90685784  0.68496037  0.27611266     0.13400
C1871       C  0.94027366  0.66062291  0.26228034    -0.24300
H1872       H  0.92805776  0.68664857  0.33394766     0.14700
H1873       H  0.82634797  0.73237248  0.24517851     0.14700
C1874       C  0.81295677  0.75618501  0.31769798    -0.24300
H1875       H  0.96150048  0.65571451  0.28553053     0.04900
H1876       H  0.95486732  0.67521926  0.23824401     0.08100
H1877       H  0.93048879  0.63205492  0.25245304     0.08100
H1878       H  0.81331090  0.78457356  0.30332779     0.08100
H1879       H  0.81275474  0.76080950  0.34934339     0.08100
H1880       H  0.78628524  0.74114054  0.31033708     0.04900
C1881       C  0.91878308  0.11183243  0.20683161    -0.20900
C1882       C  0.91494298  0.12114718  0.24604966    -0.07500
C1883       C  0.91913718  0.16000736  0.25780447     0.13400
C1884       C  0.91835083  0.18881331  0.22983952    -0.21000
C1885       C  0.91429383  0.17935136  0.19090571    -0.07500
C1886       C  0.91876699  0.14064967  0.17897403     0.13400
C1887       C  0.92178346  0.12893533  0.13721717    -0.24300
H1888       H  0.91812969  0.08196581  0.19763764     0.14700
H1889       H  0.91671530  0.21875894  0.23873624     0.14700
C1890       C  0.92134181  0.17208982  0.29931160    -0.24300
H1891       H  0.94776295  0.11062203  0.13295001     0.04900
H1892       H  0.92437358  0.15409497  0.11801829     0.08100
H1893       H  0.89639222  0.11229743  0.12870481     0.08100
H1894       H  0.94656849  0.15834518  0.31318836     0.08100
H1895       H  0.89465783  0.16438489  0.31424004     0.08100
H1896       H  0.92544302  0.20350601  0.30222172     0.04900
C1897       C  0.84472736  0.09058020  0.42903045    -0.20900
C1898       C  0.87393528  0.11780633  0.43339217    -0.07500
C1899       C  0.91035978  0.10511680  0.42002118     0.13400
C1900       C  0.91257562  0.07672402  0.39068644    -0.21000
C1901       C  0.87899863  0.06140475  0.37459054    -0.07500
C1902       C  0.84716617  0.06201109  0.39986724     0.13400
C1903       C  0.81448607  0.03509840  0.39437591    -0.24300
H1904       H  0.81847999  0.09377835  0.44518910     0.14700
H1905       H  0.93989305  0.07064293  0.37722710     0.14700
C1906       C  0.94638188  0.12425854  0.43274838    -0.24300
H1907       H  0.81968669  0.01492911  0.36990769     0.04900
H1908       H  0.78761035  0.05164594  0.38901370     0.08100
H1909       H  0.81095687  0.01784675  0.42090665     0.08100
H1910       H  0.94072904  0.14647805  0.45522085     0.08100
H1911       H  0.96029416  0.13797242  0.40773401     0.08100
H1912       H  0.96629706  0.10233571  0.44503567     0.04900
C1913       C  0.55290566  0.11120179  0.17611689    -0.20900
C1914       C  0.58383016  0.08460504  0.17923114    -0.07500
C1915       C  0.60430039  0.07874463  0.14426102     0.13400
C1916       C  0.60574947  0.10901980  0.11723861    -0.21000
C1917       C  0.58619321  0.14430950  0.12444695    -0.07500
C1918       C  0.55395309  0.14134563  0.14891002     0.13400
C1919       C  0.52212614  0.17097098  0.14842271    -0.24300
H1920       H  0.53106517  0.11209846  0.19819215     0.14700
H1921       H  0.62599507  0.10684044  0.09370427     0.14700
C1922       C  0.62761403  0.04265839  0.13708728    -0.24300
H1923       H  0.49489015  0.15668188  0.14153715     0.04900
H1924       H  0.52699317  0.19327314  0.12628040     0.08100
H1925       H  0.51943722  0.18511109  0.17710989     0.08100
H1926       H  0.62558180  0.02237547  0.16158000     0.08100
H1927       H  0.65795808  0.04979677  0.13251838     0.08100
H1928       H  0.61695065  0.02808164  0.11073919     0.04900
C1929       C  0.62391442  0.17704683  0.30523066    -0.20900
C1930       C  0.60795662  0.14116542  0.31106032    -0.07500
C1931       C  0.58882968  0.13300488  0.34566060     0.13400
C1932       C  0.58862514  0.16040685  0.37523063    -0.21000
C1933       C  0.60568879  0.19593978  0.36983892    -0.07500
C1934       C  0.62265521  0.20490276  0.33421094     0.13400
C1935       C  0.64003178  0.24302413  0.32561723    -0.24300
H1936       H  0.63797979  0.18310108  0.27812759     0.14700
H1937       H  0.57511902  0.15422466  0.40256496     0.14700
C1938       C  0.56830112  0.09591826  0.35118412    -0.24300
H1939       H  0.67042447  0.23840656  0.31762248     0.04900
H1940       H  0.63853335  0.26375132  0.34990403     0.08100
H1941       H  0.62450080  0.25600112  0.30098634     0.08100
H1942       H  0.58908104  0.07178486  0.35025489     0.08100
H1943       H  0.54680315  0.09224040  0.32798793     0.08100
H1944       H  0.55344899  0.09507972  0.37943323     0.04900
C1945       C  0.72390287  0.11942756  0.27464588    -0.20900
C1946       C  0.71014690  0.09147503  0.24920547    -0.07500
C1947       C  0.73604645  0.06647026  0.22983559     0.13400
C1948       C  0.77485548  0.06829483  0.23870885    -0.21000
C1949       C  0.78841742  0.09420822  0.26653698    -0.07500
C1950       C  0.76281624  0.12152520  0.28312665     0.13400
C1951       C  0.77546258  0.15330641  0.30953135    -0.24300
H1952       H  0.70401154  0.13929675  0.28865184     0.14700
H1953       H  0.79418414  0.04739576  0.22563095     0.14700
C1954       C  0.72298950  0.03592774  0.20198248    -0.24300
H1955       H  0.76420285  0.18122436  0.29860447     0.04900
H1956       H  0.80693483  0.15546196  0.31110362     0.08100
H1957       H  0.76393979  0.14877683  0.33893315     0.08100
H1958       H  0.71059103  0.04960470  0.17598584     0.08100
H1959       H  0.70156622  0.01747306  0.21590851     0.08100
H1960       H  0.74701099  0.01705160  0.19213534     0.04900
C1961       C  0.72109498  0.78516487  0.39928666    -0.20900
C1962       C  0.71655010  0.81938548  0.42019087    -0.07500
C1963       C  0.68506098  0.82541543  0.44476809     0.13400
C1964       C  0.65751605  0.79706318  0.44672238    -0.21000
C1965       C  0.66166932  0.76319075  0.42506170    -0.07500
C1966       C  0.69439724  0.75625562  0.40222677     0.13400
C1967       C  0.70093856  0.71903357  0.38034082    -0.24300
H1968       H  0.74519254  0.78151412  0.37994191     0.14700
H1969       H  0.63201139  0.80188158  0.46388971     0.14700
C1970       C  0.67989095  0.86217413  0.46756763    -0.24300
H1971       H  0.72827967  0.71892894  0.36415679     0.04900
H1972       H  0.67770179  0.71440186  0.35931283     0.08100
H1973       H  0.70210720  0.69460454  0.40077976     0.08100
H1974       H  0.67712019  0.88697693  0.44774241     0.08100
H1975       H  0.70492909  0.86624531  0.48668586     0.08100
H1976       H  0.65388760  0.86172130  0.48581642     0.04900
C1977       C  0.85099463  0.87300206  0.45210975    -0.20900
C1978       C  0.84158620  0.88729193  0.41516391    -0.07500
C1979       C  0.87203438  0.88424481  0.38810451     0.13400
C1980       C  0.89942713  0.85387805  0.39162071    -0.21000
C1981       C  0.89876525  0.82874062  0.42351891    -0.07500
C1982       C  0.88067370  0.84509640  0.45675646     0.13400
C1983       C  0.89219594  0.83334929  0.49684790    -0.24300
H1984       H  0.83250332  0.87981376  0.47632028     0.14700
H1985       H  0.91818852  0.84733330  0.36756012     0.14700
C1986       C  0.87574253  0.91248039  0.35567516    -0.24300
H1987       H  0.86731824  0.82235943  0.51287373     0.04900
H1988       H  0.90306237  0.85880410  0.51258736     0.08100
H1989       H  0.91522159  0.81093532  0.49619643     0.08100
H1990       H  0.85202374  0.93416570  0.35605717     0.08100
H1991       H  0.87612960  0.89729543  0.32740984     0.08100
H1992       H  0.90296070  0.92795450  0.35891997     0.04900
C1993       C  0.63408256  0.84445502  0.08256916    -0.20900
C1994       C  0.64442751  0.86719600  0.11481077    -0.07500
C1995       C  0.61389454  0.87658367  0.14034416     0.13400
C1996       C  0.58186805  0.85245974  0.14140044    -0.21000
C1997       C  0.58166728  0.81790532  0.11954074    -0.07500
C1998       C  0.60267035  0.81964879  0.08469477     0.13400
C1999       C  0.59541965  0.79223209  0.05194942    -0.24300
H2000       H  0.65271545  0.84228541  0.05776716     0.14700
H2001       H  0.56048113  0.85752184  0.16344851     0.14700
C2002       C  0.61603749  0.90931724  0.16884408    -0.24300
H2003       H  0.62108581  0.77373189  0.04667717     0.04900
H2004       H  0.58885781  0.80882615  0.02542966     0.08100
H2005       H  0.57086759  0.77357618  0.05814271     0.08100
H2006       H  0.61435224  0.89819935  0.19873803     0.08100
H2007       H  0.59172816  0.92966609  0.16401686     0.08100
H2008       H  0.64279325  0.92548191  0.16573725     0.04900
C2009       C  0.81256636  0.80939076  0.11024258    -0.20900
C2010       C  0.77428140  0.80033785  0.11574067    -0.07500
C2011       C  0.76441733  0.76263587  0.12598501     0.13400
C2012       C  0.79334724  0.73630764  0.13554005    -0.21000
C2013       C  0.83158595  0.74680819  0.13427346    -0.07500
C2014       C  0.84155310  0.78281785  0.11919332     0.13400
C2015       C  0.88235947  0.79364619  0.11304322    -0.24300
H2016       H  0.81980192  0.83840860  0.10202596     0.14700
H2017       H  0.78609914  0.70787043  0.14560593     0.14700
C2018       C  0.72370654  0.75046562  0.12907529    -0.24300
H2019       H  0.88459804  0.82193709  0.09857833     0.04900
H2020       H  0.89706334  0.77161627  0.09475812     0.08100
H2021       H  0.89683246  0.79596264  0.14122242     0.08100
H2022       H  0.70956518  0.75266548  0.10053812     0.08100
H2023       H  0.70798389  0.76834827  0.15061098     0.08100
H2024       H  0.72243805  0.72013903  0.13809174     0.04900
C2025       C  0.74594550  0.82874445  0.29103800    -0.20900
C2026       C  0.74855274  0.86630800  0.30558531    -0.07500
C2027       C  0.74221678  0.89812292  0.28125246     0.13400
C2028       C  0.73256413  0.89152685  0.24287446    -0.21000
C2029       C  0.73148140  0.85411773  0.22792417    -0.07500
C2030       C  0.73955568  0.82228851  0.25162470     0.13400
C2031       C  0.74300788  0.78219350  0.23507131    -0.24300
H2032       H  0.74993917  0.80469743  0.31032665     0.14700
H2033       H  0.72670013  0.91574211  0.22409305     0.14700
C2034       C  0.74595970  0.93899735  0.29533232    -0.24300
H2035       H  0.74816910  0.76042372  0.25780217     0.04900
H2036       H  0.76716867  0.78069030  0.21441127     0.08100
H2037       H  0.71663371  0.77454053  0.21960644     0.08100
H2038       H  0.74208794  0.96006052  0.27160669     0.08100
H2039       H  0.77470726  0.94313583  0.30796919     0.08100
H2040       H  0.72386501  0.94554146  0.31722442     0.04900
loop_ 
_geom_bond_atom_site_label_1 
_geom_bond_atom_site_label_2 
_geom_bond_distance 
_geom_bond_site_symmetry_2 
_ccdc_geom_bond_type 
C1            C2   1.549       .  S
C1            C7   1.548       .  S
C1            C5   1.576       .  S
C1         C1994   1.565       .  S
C2            H9   1.084       .  S
C2            C3   1.355       .  D
C3            C4   1.514       .  S
C3         C2029   1.461       .  S
C4            C8   1.520       .  S
C4            C6   1.518       .  S
C4           H10   1.113       .  S
C5           H11   1.085       .  S
C5            C6   1.390       .  D
C6           C44   1.495       .  S
C7           H12   1.081       .  S
C7            C8   1.356       .  D
C8         C2010   1.462       .  S
C13          C14   1.550       .  S
C13          C19   1.545       .  S
C13          C17   1.588       .  S
C13        C1978   1.573       .  S
C14          H21   1.080       .  S
C14          C15   1.351       .  D
C15          C16   1.508       .  S
C15        C2026   1.463       .  S
C16          C20   1.510       .  S
C16          C18   1.523       .  S
C16          H22   1.112       .  S
C17          H23   1.084       .  S
C17          C18   1.400       .  D
C18          C26   1.510       .  S
C19          H24   1.085       .  S
C19          C20   1.351       .  D
C20        C1962   1.449       .  S
In25         O27   2.288       .  S
In25         O28   2.318       .  S
In25         O36   2.307       .  S
In25         O30   2.295   1_565  S
In25         O32   2.218       .  S
In25         O33   2.274   1_565  S
In25         O34   2.376       .  S
In25         O37   2.351   1_565  S
C26          O32   1.257       .  A
C26          O34   1.260       .  A
O27          C35   1.259       .  A
O28          C35   1.265       .  A
C29          O36   1.263   1_545  A
C29          O30   1.262       .  A
C29         C451   1.500       .  S
C31          C56   1.508       .  S
C31          O33   1.260       .  A
C31          O37   1.260       .  A
C35         C192   1.501       .  S
In38         O40   2.277       .  S
In38         O41   2.274   1_565  S
In38         O49   2.284       .  S
In38         O43   2.292       .  S
In38         O45   2.250   1_565  S
In38         O46   2.286       .  S
In38         O47   2.334       .  S
In38         O50   2.307       .  S
C39          C68   1.495       .  S
C39          O45   1.257       .  A
C39          O47   1.263   1_545  A
O40          C48   1.262   1_565  A
O41          C48   1.263       .  A
C42          O49   1.259       .  A
C42          O43   1.261       .  A
C42         C116   1.488       .  S
C44          O46   1.259       .  A
C44          O50   1.262       .  A
C48         C412   1.485       .  S
C51          C52   1.547       .  S
C51          C57   1.545       .  S
C51          C55   1.583       .  S
C51        C1914   1.570       .  S
C52          H59   1.083       .  S
C52          C53   1.353       .  D
C53          C54   1.522       .  S
C53        C1946   1.474       .  S
C54          C58   1.517       .  S
C54          C56   1.523       .  S
C54          H60   1.112       .  S
C55          H61   1.085       .  S
C55          C56   1.397       .  D
C57          H62   1.084       .  S
C57          C58   1.351       .  D
C58        C1930   1.454       .  S
C63          C64   1.548       .  S
C63          C69   1.549       .  S
C63          C67   1.568       .  S
C63        C1901   1.566       .  S
C64          H71   1.082       .  S
C64          C65   1.359       .  D
C65          C66   1.523       .  S
C65        C1949   1.483       .  S
C66          C70   1.528       .  S
C66          C68   1.529       .  S
C66          H72   1.111       .  S
C67          H73   1.084   1_545  S
C67          C68   1.387       .  D
C69          H74   1.077       .  S
C69          C70   1.358       .  D
C70        C1882   1.484       .  S
C75          C76   1.544       .  S
C75          C81   1.549       .  S
C75          C79   1.583       .  S
C75        C1981   1.577       .  S
C76          H83   1.073       .  S
C76          C77   1.353       .  D
C77          C78   1.523       .  S
C77        C1850   1.475       .  S
C78          C82   1.519       .  S
C78          C80   1.522       .  S
C78          H84   1.113       .  S
C79          H85   1.085       .  S
C79          C80   1.398       .  D
C80         C109   1.508       .  S
C81          H86   1.085       .  S
C81          C82   1.359       .  D
C82        C1866   1.475       .  S
C87          C88   1.537       .  S
C87          C93   1.546       .  S
C87          C91   1.580       .  S
C87        C1834   1.569       .  S
C88          H95   1.081       .  S
C88          C89   1.349       .  D
C89          C90   1.525       .  S
C89        C2013   1.464       .  S
C90          C94   1.524       .  S
C90          C92   1.526       .  S
C90          H96   1.112       .  S
C91          H97   1.085       .  S
C91          C92   1.396       .  D
C92         C122   1.505       .  S
C93          H98   1.085       .  S
C93          C94   1.355       .  D
C94        C1869   1.472       .  S
In99        O101   2.353       .  S
In99        O102   2.274       .  S
In99        O110   2.296       .  S
In99        O104   2.286       .  S
In99        O106   2.349   1_655  S
In99        O107   2.276   1_655  S
In99        O108   2.271   1_655  S
In99        O111   2.287   1_655  S
C100        C142   1.505       .  S
C100        O106   1.261       .  A
C100        O108   1.258       .  A
O101        C109   1.263       .  A
O102        C109   1.258       .  A
C103        O110   1.262       .  A
C103        O104   1.262       .  A
C103        C251   1.492       .  S
C105        O107   1.263       .  A
C105        O111   1.263       .  A
C105        C597   1.489       .  S
In112       O114   2.285       .  S
In112       O115   2.343       .  S
In112       O123   2.286       .  S
In112       O117   2.284       .  S
In112       O119   2.350   1_655  S
In112       O120   2.279   1_655  S
In112       O121   2.236   1_655  S
In112       O124   2.302   1_655  S
C113        C130   1.506       .  S
C113        O119   1.260       .  A
C113        O121   1.262       .  A
O114        C122   1.260       .  A
O115        C122   1.258       .  A
C116        O123   1.262       .  A
C116        O117   1.260       .  A
C118        O120   1.260       .  A
C118        O124   1.264       .  A
C118        C779   1.493       .  S
C125        C126   1.553       .  S
C125        C131   1.550       .  S
C125        C129   1.579       .  S
C125       C1802   1.566       .  S
C126        H133   1.085       .  S
C126        C127   1.358       .  D
C127        C128   1.525       .  S
C127       C1789   1.474       .  S
C128        C132   1.512       .  S
C128        C130   1.520       .  S
C128        H134   1.113       .  S
C129        H135   1.085       .  S
C129        C130   1.393       .  D
C131        H136   1.081       .  S
C131        C132   1.348       .  D
C132       C1821   1.460       .  S
C137        C138   1.549       .  S
C137        C143   1.548       .  S
C137        C141   1.580       .  S
C137       C1754   1.569       .  S
C138        H145   1.085       .  S
C138        C139   1.354       .  D
C139        C140   1.518       .  S
C139       C1770   1.458       .  S
C140        C144   1.515       .  S
C140        C142   1.520       .  S
C140        H146   1.113       .  S
C141        H147   1.084       .  S
C141        C142   1.394       .  D
C143        H148   1.082       .  S
C143        C144   1.357       .  D
C144       C1818   1.467       .  S
In149       O151   2.243       .  S
In149       O152   2.353       .  S
In149       O160   2.282       .  S
In149       O154   2.267       .  S
In149       O156   2.272       .  S
In149       O157   2.285       .  S
In149       O158   2.356       .  S
In149       O161   2.288       .  S
C150        C179   1.512       .  S
C150        O156   1.261       .  A
C150        O158   1.258       .  A
O151        C159   1.261       .  A
O152        C159   1.259       .  A
C153        O160   1.263       .  A
C153        O154   1.261       .  A
C153        C264   1.483       .  S
C155        O157   1.260       .  A
C155        O161   1.260       .  A
C155        C769   1.488       .  S
C159        C216   1.505       .  S
C162        C163   1.540       .  S
C162        C168   1.552       .  S
C162        C166   1.575       .  S
C162       C1725   1.569       .  S
C163        H170   1.078       .  S
C163        C164   1.350       .  D
C164        C165   1.521       .  S
C164       C1709   1.464       .  S
C165        C169   1.522       .  S
C165        C167   1.524       .  S
C165        H171   1.113       .  S
C166        H172   1.085       .  S
C166        C167   1.392       .  D
C167        C196   1.500       .  S
C168        H173   1.085       .  S
C168        C169   1.362       .  D
C169       C1738   1.472       .  S
C174        C175   1.542       .  S
C174        C180   1.547       .  S
C174        C178   1.585       .  S
C174       C1690   1.575       .  S
C175        H182   1.078       .  S
C175        C176   1.356       .  D
C176        C177   1.529       .  S
C176       C1674   1.473       .  S
C177        C181   1.519       .  S
C177        C179   1.525       .  S
C177        H183   1.112       .  S
C178        H184   1.085       .  S
C178        C179   1.400       .  D
C180        H185   1.084       .  S
C180        C181   1.351       .  D
C181       C1741   1.476       .  S
In186       O188   2.310       .  S
In186       O189   2.284       .  S
In186       O197   2.292       .  S
In186       O191   2.288       .  S
In186       O193   2.310       .  S
In186       O194   2.316       .  S
In186       O195   2.299       .  S
In186       O198   2.294       .  S
C187        C204   1.500       .  S
C187        O193   1.260       .  A
C187        O195   1.263       .  A
O188        C196   1.264       .  A
O189        C196   1.262       .  A
C190        O197   1.262       .  A
C190        O191   1.259       .  A
C190        C634   1.490       .  S
C192        O194   1.262       .  A
C192        O198   1.261       .  A
C199        C200   1.541       .  S
C199        C205   1.549       .  S
C199        C203   1.580       .  S
C199       C1642   1.565       .  S
C200        H207   1.086       .  S
C200        C201   1.349       .  D
C201        C202   1.518       .  S
C201       C1965   1.453       .  S
C202        C206   1.515       .  S
C202        C204   1.515       .  S
C202        H208   1.113       .  S
C203        H209   1.085       .  S
C203        C204   1.394       .  D
C205        H210   1.078       .  S
C205        C206   1.360       .  D
C206       C1658   1.467       .  S
C211        C212   1.548       .  S
C211        C217   1.553       .  S
C211        C215   1.581       .  S
C211       C1997   1.568       .  S
C212        H219   1.084       .  S
C212        C213   1.351       .  D
C213        C214   1.514       .  S
C213       C1629   1.465       .  S
C214        C218   1.515       .  S
C214        C216   1.521       .  S
C214        H220   1.112       .  S
C215        H221   1.085       .  S
C215        C216   1.395       .  D
C217        H222   1.081       .  S
C217        C218   1.353       .  D
C218       C1661   1.465       .  S
C223        C224   1.549       .  S
C223        C229   1.550       .  S
C223        C227   1.572       .  S
C223       C1837   1.564       .  S
C224        H231   1.081       .  S
C224        C225   1.356       .  D
C225        C226   1.526       .  S
C225       C1613   1.481       .  S
C226        C230   1.521       .  S
C226        C228   1.532       .  S
C226        H232   1.110       .  S
C227        H233   1.085       .  S
C227        C228   1.390       .  D
C228        C266   1.507       .  S
C229        H234   1.086       .  S
C229        C230   1.357       .  D
C230       C1626   1.470       .  S
C235        C236   1.545       .  S
C235        C241   1.537       .  S
C235        C239   1.579       .  S
C235       C1645   1.564       .  S
C236        H243   1.086       .  S
C236        C237   1.358       .  D
C237        C238   1.521       .  S
C237       C1610   1.477       .  S
C238        C242   1.530       .  S
C238        C240   1.517       .  S
C238        H244   1.111       .  S
C239        H245   1.085       .  S
C239        C240   1.393       .  D
C240        C253   1.498       .  S
C241        H246   1.079       .  S
C241        C242   1.357       .  D
C242       C1853   1.467       .  S
In247       O249   2.270       .  S
In247       O250   2.286       .  S
In247       O258   2.301       .  S
In247       O252   2.283       .  S
In247       O254   2.301       .  S
In247       O255   2.325       .  S
In247       O256   2.281       .  S
In247       O259   2.282       .  S
C248        C290   1.492       .  S
C248        O254   1.260       .  A
C248        O256   1.264       .  A
O249        C257   1.264       .  A
O250        C257   1.264       .  A
C251        O258   1.262       .  A
C251        O252   1.259       .  A
C253        O255   1.257       .  A
C253        O259   1.262       .  A
C257        C488   1.487       .  S
In260       O262   2.300       .  S
In260       O263   2.272       .  S
In260       O271   2.283       .  S
In260       O265   2.266       .  S
In260       O267   2.356       .  S
In260       O268   2.347       .  S
In260       O269   2.248       .  S
In260       O272   2.240       .  S
C261        C278   1.507       .  S
C261        O267   1.258       .  A
C261        O269   1.260       .  A
O262        C270   1.261       .  A
O263        C270   1.259       .  A
C264        O271   1.263       .  A
C264        O265   1.260       .  A
C266        O268   1.261       .  A
C266        O272   1.260       .  A
C270        C401   1.487       .  S
C273        C274   1.554       .  S
C273        C279   1.547       .  S
C273        C277   1.581       .  S
C273       C1578   1.570       .  S
C274        H281   1.080       .  S
C274        C275   1.360       .  D
C275        C276   1.519       .  S
C275       C1594   1.471       .  S
C276        C280   1.510       .  S
C276        C278   1.521       .  S
C276        H282   1.110       .  S
C277        H283   1.085       .  S
C277        C278   1.394       .  D
C279        H284   1.085       .  S
C279        C280   1.354       .  D
C280       C1565   1.467       .  S
C285        C286   1.552       .  S
C285        C291   1.538       .  S
C285        C289   1.576       .  S
C285       C1546   1.565       .  S
C286        H293   1.079       .  S
C286        C287   1.363       .  D
C287        C288   1.516       .  S
C287       C1597   1.475       .  S
C288        C292   1.521       .  S
C288        C290   1.514       .  S
C288        H294   1.112       .  S
C289        H295   1.085       .  S
C289        C290   1.393       .  D
C291        H296   1.086       .  S
C291        C292   1.348       .  D
C292       C1530   1.457       .  S
C297        C298   1.548       .  S
C297        C303   1.548       .  S
C297        C301   1.576       .  S
C297       C1485   1.565       .  S
C298        H305   1.083       .  S
C298        C299   1.352       .  D
C299        C300   1.523       .  S
C299       C1514   1.464       .  S
C300        C304   1.524       .  S
C300        C302   1.531       .  S
C300        H306   1.111       .  S
C301        H307   1.085       .  S
C301        C302   1.392       .  D
C302        C335   1.509       .  S
C303        H308   1.085       .  S
C303        C304   1.357       .  D
C304       C1501   1.476       .  S
C309        C310   1.547       .  S
C309        C315   1.539       .  S
C309        C313   1.578       .  S
C309       C1469   1.569       .  S
C310        H317   1.086       .  S
C310        C311   1.360       .  D
C311        C312   1.517       .  S
C311       C1517   1.464       .  S
C312        C316   1.528       .  S
C312        C314   1.520       .  S
C312        H318   1.112       .  S
C313        H319   1.085       .  S
C313        C314   1.395       .  D
C314        C322   1.502       .  S
C315        H320   1.080       .  S
C315        C316   1.352       .  D
C316       C1450   1.469       .  S
In321       O323   2.269       .  S
In321       O324   2.276       .  S
In321       O332   2.293   1_655  S
In321       O326   2.272   1_655  S
In321       O328   2.302       .  S
In321       O329   2.327   1_655  S
In321       O330   2.307       .  S
In321       O333   2.275   1_655  S
C322        O328   1.265       .  A
C322        O330   1.259       .  A
O323        C331   1.262       .  A
O324        C331   1.262       .  A
C325        O332   1.262       .  A
C325        O326   1.261       .  A
C325        C673   1.489       .  S
C327        C352   1.500       .  S
C327        O329   1.259       .  A
C327        O333   1.264       .  A
C331        C486   1.481       .  S
In334       O336   2.295       .  S
In334       O337   2.276       .  S
In334       O345   2.275   1_655  S
In334       O339   2.301       .  S
In334       O341   2.250       .  S
In334       O342   2.260   1_655  S
In334       O343   2.355       .  S
In334       O346   2.356       .  S
C335        O341   1.259       .  A
C335        O343   1.261       .  A
O336        C344   1.263       .  A
O337        C344   1.258       .  A
C338        O345   1.259       .  A
C338        O339   1.264   1_455  A
C338        C845   1.491       .  S
C340        C364   1.512       .  S
C340        O342   1.261       .  A
C340        O346   1.262   1_455  A
C344        C414   1.487       .  S
C347        C348   1.550       .  S
C347        C353   1.547       .  S
C347        C351   1.579       .  S
C347       C1402   1.567       .  S
C348        H355   1.082       .  S
C348        C349   1.358       .  D
C349        C350   1.514       .  S
C349       C1434   1.467       .  S
C350        C354   1.517       .  S
C350        C352   1.512       .  S
C350        H356   1.113       .  S
C351        H357   1.085       .  S
C351        C352   1.392       .  D
C353        H358   1.086       .  S
C353        C354   1.357       .  D
C354       C1421   1.462       .  S
C359        C360   1.548       .  S
C359        C365   1.546       .  S
C359        C363   1.581       .  S
C359       C1386   1.569       .  S
C360        H367   1.081       .  S
C360        C361   1.354       .  D
C361        C362   1.520       .  S
C361       C1437   1.466       .  S
C362        C366   1.515       .  S
C362        C364   1.530       .  S
C362        H368   1.112       .  S
C363        H369   1.085       .  S
C363        C364   1.396       .  D
C365        H370   1.085       .  S
C365        C366   1.349       .  D
C366       C1370   1.464       .  S
C371        C372   1.544       .  S
C371        C377   1.548       .  S
C371        C375   1.586       .  S
C371       C1466   1.567       .  S
C372        H379   1.086       .  S
C372        C373   1.353       .  D
C373        C374   1.516       .  S
C373       C1338   1.457       .  S
C374        C378   1.513       .  S
C374        C376   1.511       .  S
C374        H380   1.112       .  S
C375        H381   1.084       .  S
C375        C376   1.396       .  D
C376        C405   1.506       .  S
C377        H382   1.077       .  S
C377        C378   1.356       .  D
C378       C1354   1.468       .  S
C383        C384   1.550       .  S
C383        C389   1.551       .  S
C383        C387   1.572       .  S
C383       C1322   1.564       .  S
C384        H391   1.083       .  S
C384        C385   1.356       .  D
C385        C386   1.512       .  S
C385       C1498   1.470       .  S
C386        C390   1.515       .  S
C386        C388   1.517       .  S
C386        H392   1.113       .  S
C387        H393   1.085   1_556  S
C387        C388   1.389       .  D
C388        C409   1.489   1_556  S
C389        H394   1.075       .  S
C389        C390   1.360       .  D
C390       C1357   1.467       .  S
In395       O397   2.349   1_554  S
In395       O398   2.264   1_554  S
In395       O406   2.308   1_554  S
In395       O400   2.294   1_554  S
In395       O402   2.344       .  S
In395       O403   2.266       .  S
In395       O404   2.247       .  S
In395       O407   2.303       .  S
C396        C438   1.505       .  S
C396        O402   1.262       .  A
C396        O404   1.260       .  A
O397        C405   1.261       .  A
O398        C405   1.262       .  A
C399        O406   1.264       .  A
C399        O400   1.261       .  A
C399        C544   1.499       .  S
C401        O403   1.257       .  A
C401        O407   1.264       .  A
In408       O410   2.257       .  S
In408       O411   2.345       .  S
In408       O419   2.291       .  S
In408       O413   2.279       .  S
In408       O415   2.246       .  S
In408       O416   2.268   1_554  S
In408       O417   2.318       .  S
In408       O420   2.278       .  S
C409        O415   1.260       .  A
C409        O417   1.259       .  A
O410        C418   1.260       .  A
O411        C418   1.256       .  A
C412        O419   1.261       .  A
C412        O413   1.258       .  A
C414        O416   1.265       .  A
C414        O420   1.265   1_556  A
C418        C426   1.499       .  S
C421        C422   1.542       .  S
C421        C427   1.547       .  S
C421        C425   1.584       .  S
C421       C1549   1.569       .  S
C422        H429   1.080       .  S
C422        C423   1.354       .  D
C423        C424   1.525       .  S
C423       C1885   1.471       .  S
C424        C428   1.519       .  S
C424        C426   1.516       .  S
C424        H430   1.112       .  S
C425        H431   1.085       .  S
C425        C426   1.396       .  D
C427        H432   1.085       .  S
C427        C428   1.358       .  D
C428       C1306   1.474       .  S
C433        C434   1.546       .  S
C433        C439   1.551       .  S
C433        C437   1.573       .  S
C433       C1917   1.566       .  S
C434        H441   1.084       .  S
C434        C435   1.356       .  D
C435        C436   1.520       .  S
C435       C1562   1.468       .  S
C436        C440   1.522       .  S
C436        C438   1.530       .  S
C436        H442   1.112       .  S
C437        H443   1.085       .  S
C437        C438   1.390       .  D
C439        H444   1.084       .  S
C439        C440   1.356       .  D
C440       C1309   1.470       .  S
In445       O447   2.272       .  S
In445       O448   2.339       .  S
In445       O456   2.313       .  S
In445       O450   2.284       .  S
In445       O452   2.254       .  S
In445       O453   2.294       .  S
In445       O454   2.353       .  S
In445       O457   2.309       .  S
C446        C475   1.508       .  S
C446        O452   1.262       .  A
C446        O454   1.261       .  A
O447        C455   1.262       .  A
O448        C455   1.260       .  A
C449        O456   1.264       .  A
C449        O450   1.257       .  A
C449        C560   1.496       .  S
C451        O453   1.261       .  A
C451        O457   1.264       .  A
C455        C512   1.506       .  S
C458        C459   1.546       .  S
C458        C464   1.550       .  S
C458        C462   1.576       .  S
C458       C1898   1.563       .  S
C459        H466   1.082       .  S
C459        C460   1.350       .  D
C460        C461   1.510       .  S
C460       C1533   1.455       .  S
C461        C465   1.510       .  S
C461        C463   1.511       .  S
C461        H467   1.114       .  S
C462        H468   1.085       .  S
C462        C463   1.391       .  D
C463        C483   1.482       .  S
C464        H469   1.083       .  S
C464        C465   1.359       .  D
C465       C1290   1.458       .  S
C470        C471   1.544       .  S
C470        C476   1.551       .  S
C470        C474   1.586       .  S
C470       C1581   1.572       .  S
C471        H478   1.084       .  S
C471        C472   1.349       .  D
C472        C473   1.516       .  S
C472       C1933   1.455       .  S
C473        C477   1.511       .  S
C473        C475   1.520       .  S
C473        H479   1.113       .  S
C474        H480   1.084       .  S
C474        C475   1.399       .  D
C476        H481   1.083       .  S
C476        C477   1.349       .  D
C477       C1293   1.455       .  S
In482       O484   2.235       .  S
In482       O485   2.343       .  S
In482       O493   2.269       .  S
In482       O487   2.276       .  S
In482       O489   2.275       .  S
In482       O490   2.296       .  S
In482       O491   2.293       .  S
In482       O494   2.271       .  S
C483        O489   1.258       .  A
C483        O491   1.258       .  A
O484        C492   1.258       .  A
O485        C492   1.260       .  A
C486        O493   1.261       .  A
C486        O487   1.262       .  A
C488        O490   1.262       .  A
C488        O494   1.259       .  A
C492        C500   1.498       .  S
C495        C496   1.547       .  S
C495        C501   1.546       .  S
C495        C499   1.576       .  S
C495       C1258   1.570       .  S
C496        H503   1.079       .  S
C496        C497   1.353       .  D
C497        C498   1.525       .  S
C497       C1453   1.474       .  S
C498        C502   1.527       .  S
C498        C500   1.528       .  S
C498        H504   1.107       .  S
C499        H505   1.085       .  S
C499        C500   1.392       .  D
C501        H506   1.083       .  S
C501        C502   1.357       .  D
C502       C1277   1.495       .  S
C507        C508   1.534       .  S
C507        C513   1.544       .  S
C507        C511   1.578       .  S
C507       C1482   1.564       .  S
C508        H515   1.083       .  S
C508        C509   1.348       .  D
C509        C510   1.529       .  S
C509       C1242   1.454       .  S
C510        C514   1.528       .  S
C510        C512   1.530       .  S
C510        H516   1.111       .  S
C511        H517   1.085       .  S
C511        C512   1.395       .  D
C513        H518   1.086       .  S
C513        C514   1.354       .  D
C514       C1274   1.481       .  S
C519        C520   1.551       .  S
C519        C525   1.545       .  S
C519        C523   1.584       .  S
C519       C1325   1.568       .  S
C520        H527   1.086       .  S
C520        C521   1.350       .  D
C521        C522   1.508       .  S
C521       C1226   1.455       .  S
C522        C526   1.515       .  S
C522        C524   1.511       .  S
C522        H528   1.114       .  S
C523        H529   1.085       .  S
C523        C524   1.398       .  D
C524        C562   1.496       .  S
C525        H530   1.076       .  S
C525        C526   1.352       .  D
C526       C1245   1.460       .  S
C531        C532   1.552       .  S
C531        C537   1.542       .  S
C531        C535   1.582       .  S
C531       C1261   1.567       .  S
C532        H539   1.082       .  S
C532        C533   1.357       .  D
C533        C534   1.512       .  S
C533       C1229   1.458       .  S
C534        C538   1.514       .  S
C534        C536   1.524       .  S
C534        H540   1.113       .  S
C535        H541   1.084       .  S
C535        C536   1.395       .  D
C536        C549   1.505       .  S
C537        H542   1.085       .  S
C537        C538   1.349       .  D
C538       C1341   1.457       .  S
In543       O545   2.315       .  S
In543       O546   2.305       .  S
In543       O554   2.291       .  S
In543       O548   2.290       .  S
In543       O550   2.312       .  S
In543       O551   2.349       .  S
In543       O552   2.302       .  S
In543       O555   2.244       .  S
C544        O550   1.260       .  A
C544        O552   1.259       .  A
O545        C553   1.260       .  A
O546        C553   1.258       .  A
C547        O554   1.263       .  A
C547        O548   1.263       .  A
C547        C710   1.494       .  S
C549        O551   1.261       .  A
C549        O555   1.262       .  A
C553        C586   1.506       .  S
In556       O558   2.285       .  S
In556       O559   2.276       .  S
In556       O567   2.298       .  S
In556       O561   2.286       .  S
In556       O563   2.344       .  S
In556       O564   2.326       .  S
In556       O565   2.259       .  S
In556       O568   2.279       .  S
C557        C574   1.505       .  S
C557        O563   1.259       .  A
C557        O565   1.261       .  A
O558        C566   1.261       .  A
O559        C566   1.260       .  A
C560        O567   1.264       .  A
C560        O561   1.265       .  A
C562        O564   1.256       .  A
C562        O568   1.261       .  A
C566        C858   1.484       .  S
C569        C570   1.545       .  S
C569        C575   1.539       .  S
C569        C573   1.579       .  S
C569       C1194   1.568       .  S
C570        H577   1.083       .  S
C570        C571   1.351       .  D
C571        C572   1.522       .  S
C571       C1210   1.484       .  S
C572        C576   1.529       .  S
C572        C574   1.526       .  S
C572        H578   1.111       .  S
C573        H579   1.085       .  S
C573        C574   1.396       .  D
C575        H580   1.080       .  S
C575        C576   1.357       .  D
C576       C1178   1.465       .  S
C581        C582   1.547       .  S
C581        C587   1.544       .  S
C581        C585   1.576       .  S
C581       C1162   1.569       .  S
C582        H589   1.083       .  S
C582        C583   1.362       .  D
C583        C584   1.538       .  S
C583       C1213   1.494       .  S
C584        C588   1.526       .  S
C584        C586   1.529       .  S
C584        H590   1.111       .  S
C585        H591   1.085       .  S
C585        C586   1.392       .  D
C587        H592   1.083       .  S
C587        C588   1.352       .  D
C588       C1146   1.472       .  S
In593       O595   2.306       .  S
In593       O596   2.291       .  S
In593       O604   2.291       .  S
In593       O598   2.271       .  S
In593       O600   2.290       .  S
In593       O601   2.342       .  S
In593       O602   2.310       .  S
In593       O605   2.262       .  S
C594        C648   1.497       .  S
C594        O600   1.260       .  A
C594        O602   1.263       .  A
O595        C603   1.262       .  A
O596        C603   1.261       .  A
C597        O604   1.265       .  A
C597        O598   1.261       .  A
C599        C623   1.500       .  S
C599        O601   1.261       .  A
C599        O605   1.258       .  A
C603        C671   1.496       .  S
C606        C607   1.551       .  S
C606        C612   1.540       .  S
C606        C610   1.581       .  S
C606       C1805   1.568       .  S
C607        H614   1.085       .  S
C607        C608   1.364       .  D
C608        C609   1.520       .  S
C608       C1130   1.475       .  S
C609        C613   1.517       .  S
C609        C611   1.508       .  S
C609        H615   1.111       .  S
C610        H616   1.085       .  S
C610        C611   1.394       .  D
C611        C640   1.491       .  S
C612        H617   1.081       .  S
C612        C613   1.350       .  D
C613       C1706   1.458       .  S
C618        C619   1.552       .  S
C618        C624   1.542       .  S
C618        C622   1.578       .  S
C618       C1693   1.568       .  S
C619        H626   1.083       .  S
C619        C620   1.365       .  D
C620        C621   1.525       .  S
C620       C1133   1.476       .  S
C621        C625   1.513       .  S
C621        C623   1.524       .  S
C621        H627   1.111       .  S
C622        H628   1.084       .  S
C622        C623   1.393       .  D
C624        H629   1.084       .  S
C624        C625   1.345       .  D
C625       C1773   1.458       .  S
In630       O632   2.292       .  S
In630       O633   2.305       .  S
In630       O641   2.293       .  S
In630       O635   2.284       .  S
In630       O637   2.262       .  S
In630       O638   2.356       .  S
In630       O639   2.262       .  S
In630       O642   2.231       .  S
C631        O637   1.263       .  A
C631        O639   1.263       .  A
C631        C856   1.476       .  S
O632        C640   1.257       .  A
O633        C640   1.262       .  A
C634        O641   1.262       .  A
C634        O635   1.259       .  A
C636        C660   1.501       .  S
C636        O638   1.262       .  A
C636        O642   1.257       .  A
C643        C644   1.545       .  S
C643        C649   1.544       .  S
C643        C647   1.580       .  S
C643       C1098   1.567       .  S
C644        H651   1.085       .  S
C644        C645   1.354       .  D
C645        C646   1.518       .  S
C645       C1114   1.465       .  S
C646        C650   1.520       .  S
C646        C648   1.517       .  S
C646        H652   1.113       .  S
C647        H653   1.085       .  S
C647        C648   1.394       .  D
C649        H654   1.082       .  S
C649        C650   1.353       .  D
C650       C1082   1.458       .  S
C655        C656   1.549       .  S
C655        C661   1.549       .  S
C655        C659   1.581       .  S
C655       C1066   1.568       .  S
C656        H663   1.080       .  S
C656        C657   1.358       .  D
C657        C658   1.515       .  S
C657       C1117   1.467       .  S
C658        C662   1.511       .  S
C658        C660   1.522       .  S
C658        H664   1.112       .  S
C659        H665   1.085       .  S
C659        C660   1.394       .  D
C661        H666   1.085       .  S
C661        C662   1.350       .  D
C662       C1050   1.455       .  S
In667       O669   2.307       .  S
In667       O670   2.285       .  S
In667       O678   2.301       .  S
In667       O672   2.281       .  S
In667       O674   2.357       .  S
In667       O675   2.273       .  S
In667       O676   2.252       .  S
In667       O679   2.302       .  S
C668        C697   1.506       .  S
C668        O674   1.259       .  A
C668        O676   1.257       .  A
O669        C677   1.259       .  A
O670        C677   1.258       .  A
C671        O678   1.265       .  A
C671        O672   1.262       .  A
C673        O675   1.259       .  A
C673        O679   1.264       .  A
C677        C734   1.494       .  S
C680        C681   1.548       .  S
C680        C686   1.546       .  S
C680        C684   1.582       .  S
C680       C1389   1.569       .  S
C681        H688   1.079       .  S
C681        C682   1.355       .  D
C682        C683   1.521       .  S
C682       C1149   1.471       .  S
C683        C687   1.515       .  S
C683        C685   1.520       .  S
C683        H689   1.113       .  S
C684        H690   1.085       .  S
C684        C685   1.393       .  D
C685        C705   1.500       .  S
C686        H691   1.085       .  S
C686        C687   1.357       .  D
C687       C1034   1.466       .  S
C692        C693   1.547       .  S
C692        C698   1.551       .  S
C692        C696   1.580       .  S
C692       C1197   1.565       .  S
C693        H700   1.082       .  S
C693        C694   1.350       .  D
C694        C695   1.508       .  S
C694       C1418   1.458       .  S
C695        C699   1.521       .  S
C695        C697   1.526       .  S
C695        H701   1.112       .  S
C696        H702   1.085       .  S
C696        C697   1.393       .  D
C698        H703   1.083       .  S
C698        C699   1.358       .  D
C699       C1037   1.466       .  S
In704       O706   2.239       .  S
In704       O707   2.372       .  S
In704       O715   2.282       .  S
In704       O709   2.288       .  S
In704       O711   2.265       .  S
In704       O712   2.292       .  S
In704       O713   2.342       .  S
In704       O716   2.292       .  S
C705        O711   1.257       .  A
C705        O713   1.264       .  A
O706        C714   1.256       .  A
O707        C714   1.262       .  A
C708        O715   1.263       .  A
C708        O709   1.264       .  A
C708        C775   1.491       .  S
C710        O712   1.262       .  A
C710        O716   1.263       .  A
C714        C722   1.511       .  S
C717        C718   1.539       .  S
C717        C723   1.544       .  S
C717        C721   1.585       .  S
C717       C1069   1.571       .  S
C718        H725   1.072       .  S
C718        C719   1.354       .  D
C719        C720   1.532       .  S
C719       C1005   1.478       .  S
C720        C724   1.527       .  S
C720        C722   1.528       .  S
C720        H726   1.112       .  S
C721        H727   1.085       .  S
C721        C722   1.398       .  D
C723        H728   1.085       .  S
C723        C724   1.347       .  D
C724       C1018   1.478       .  S
C729        C730   1.545       .  S
C729        C735   1.548       .  S
C729        C733   1.575       .  S
C729        C986   1.566       .  S
C730        H737   1.083       .  S
C730        C731   1.353       .  D
C731        C732   1.521       .  S
C731       C1085   1.462       .  S
C732        C736   1.525       .  S
C732        C734   1.521       .  S
C732        H738   1.113       .  S
C733        H739   1.085       .  S
C733        C734   1.391       .  D
C735        H740   1.083       .  S
C735        C736   1.357       .  D
C736       C1021   1.477       .  S
C741        C742   1.545       .  S
C741        C747   1.548       .  S
C741        C745   1.576       .  S
C741        C989   1.564       .  S
C742        H749   1.081       .  S
C742        C743   1.353       .  D
C743        C744   1.523       .  S
C743        C970   1.471       .  S
C744        C748   1.522       .  S
C744        C746   1.530       .  S
C744        H750   1.109       .  S
C745        H751   1.085       .  S
C745        C746   1.393       .  D
C746        C788   1.505       .  S
C747        H752   1.087       .  S
C747        C748   1.356       .  D
C748        C954   1.476       .  S
C753        C754   1.545       .  S
C753        C759   1.546       .  S
C753        C757   1.578       .  S
C753        C941   1.563       .  S
C754        H761   1.086       .  S
C754        C755   1.356       .  D
C755        C756   1.518       .  S
C755        C973   1.470       .  S
C756        C760   1.528       .  S
C756        C758   1.511       .  S
C756        H762   1.107       .  S
C757        H763   1.085       .  S
C757        C758   1.389       .  D
C758        C766   1.495       .  S
C759        H764   1.082       .  S
C759        C760   1.361       .  D
C760       C1002   1.475       .  S
In765       O767   2.284   1_554  S
In765       O768   2.285   1_554  S
In765       O776   2.284       .  S
In765       O770   2.277       .  S
In765       O772   2.282   1_554  S
In765       O773   2.300       .  S
In765       O774   2.308       .  S
In765       O777   2.298       .  S
C766        O772   1.258       .  A
C766        O774   1.266   1_556  A
O767        C775   1.263       .  A
O768        C775   1.263       .  A
C769        O776   1.262       .  A
C769        O770   1.262       .  A
C771        C796   1.501       .  S
C771        O773   1.261       .  A
C771        O777   1.266       .  A
In778       O780   2.351       .  S
In778       O781   2.230   1_554  S
In778       O789   2.302       .  S
In778       O783   2.262   1_554  S
In778       O785   2.301       .  S
In778       O786   2.245       .  S
In778       O787   2.282       .  S
In778       O790   2.359       .  S
C779        O785   1.263       .  A
C779        O787   1.261       .  A
O780        C788   1.261   1_554  A
O781        C788   1.260       .  A
C782        O789   1.263   1_556  A
C782        O783   1.258       .  A
C782        C843   1.486       .  S
C784        C808   1.506       .  S
C784        O786   1.259       .  A
C784        O790   1.259       .  A
C791        C792   1.547       .  S
C791        C797   1.542       .  S
C791        C795   1.582       .  S
C791       C1757   1.570       .  S
C792        H799   1.083       .  S
C792        C793   1.354       .  D
C793        C794   1.520       .  S
C793        C925   1.469       .  S
C794        C798   1.529       .  S
C794        C796   1.515       .  S
C794        H800   1.111       .  S
C795        H801   1.085       .  S
C795        C796   1.395       .  D
C797        H802   1.081       .  S
C797        C798   1.354       .  D
C798       C1677   1.478       .  S
C803        C804   1.548       .  S
C803        C809   1.546       .  S
C803        C807   1.582       .  S
C803       C1722   1.572       .  S
C804        H811   1.073       .  S
C804        C805   1.352       .  D
C805        C806   1.520       .  S
C805        C922   1.476       .  S
C806        C810   1.518       .  S
C806        C808   1.520       .  S
C806        H812   1.110       .  S
C807        H813   1.084       .  S
C807        C808   1.398       .  D
C809        H814   1.083       .  S
C809        C810   1.354       .  D
C810       C1786   1.470       .  S
C815        C816   1.547       .  S
C815        C821   1.555       .  S
C815        C819   1.577       .  S
C815       C1101   1.567       .  S
C816        H823   1.082       .  S
C816        C817   1.352       .  D
C817        C818   1.514       .  S
C817        C957   1.468       .  S
C818        C822   1.516       .  S
C818        C820   1.522       .  S
C818        H824   1.112       .  S
C819        H825   1.085       .  S
C819        C820   1.392       .  D
C820        C849   1.501       .  S
C821        H826   1.080       .  S
C821        C822   1.359       .  D
C822        C906   1.472       .  S
C827        C828   1.540       .  S
C827        C833   1.555       .  S
C827        C831   1.578       .  S
C827        C938   1.564       .  S
C828        H835   1.086       .  S
C828        C829   1.347       .  D
C829        C830   1.520       .  S
C829       C1053   1.454       .  S
C830        C834   1.518       .  S
C830        C832   1.516       .  S
C830        H836   1.112       .  S
C831        H837   1.085       .  S
C831        C832   1.391       .  D
C832        C862   1.500       .  S
C833        H838   1.079       .  S
C833        C834   1.363       .  D
C834        C909   1.479       .  S
In839       O841   2.348       .  S
In839       O842   2.232       .  S
In839       O850   2.265       .  S
In839       O844   2.304       .  S
In839       O846   2.251   1_565  S
In839       O847   2.299       .  S
In839       O848   2.345       .  S
In839       O851   2.280   1_565  S
C840        C870   1.502       .  S
C840        O846   1.261       .  A
C840        O848   1.261   1_545  A
O841        C849   1.261       .  A
O842        C849   1.260       .  A
C843        O850   1.258       .  A
C843        O844   1.263       .  A
C845        O847   1.262   1_545  A
C845        O851   1.261       .  A
In852       O854   2.330       .  S
In852       O855   2.272       .  S
In852       O863   2.263       .  S
In852       O857   2.262       .  S
In852       O859   2.329       .  S
In852       O860   2.271   1_565  S
In852       O861   2.264   1_565  S
In852       O864   2.283       .  S
C853        C882   1.500       .  S
C853        O859   1.257   1_545  A
C853        O861   1.264       .  A
O854        C862   1.258       .  A
O855        C862   1.263       .  A
C856        O863   1.263       .  A
C856        O857   1.262       .  A
C858        O860   1.261       .  A
C858        O864   1.262   1_545  A
C865        C866   1.546       .  S
C865        C871   1.547       .  S
C865        C869   1.584       .  S
C865       C1165   1.569       .  S
C866        H873   1.086       .  S
C866        C867   1.352       .  D
C867        C868   1.516       .  S
C867       C1373   1.457       .  S
C868        C872   1.511       .  S
C868        C870   1.519       .  S
C868        H874   1.113       .  S
C869        H875   1.085       .  S
C869        C870   1.397       .  D
C871        H876   1.082       .  S
C871        C872   1.352       .  D
C872        C890   1.457       .  S
C877        C878   1.543       .  S
C877        C883   1.547       .  S
C877        C881   1.581       .  S
C877       C1405   1.569       .  S
C878        H885   1.081       .  S
C878        C879   1.353       .  D
C879        C880   1.521       .  S
C879       C1181   1.467       .  S
C880        C884   1.515       .  S
C880        C882   1.520       .  S
C880        H886   1.112       .  S
C881        H887   1.085       .  S
C881        C882   1.396       .  D
C883        H888   1.085       .  S
C883        C884   1.349       .  D
C884        C893   1.456       .  S
C889        C890   1.401       .  A
C889        C894   1.398       .  A
C889        H896   1.084       .  S
C890        C891   1.407       .  A
C891        C898   1.505       .  S
C891        C892   1.389       .  A
C892        C893   1.398       .  A
C892        H897   1.084       .  S
C893        C894   1.409       .  A
C894        C895   1.508       .  S
C895        H899   1.109       .  S
C895        H900   1.109       .  S
C895        H901   1.111       .  S
C898        H902   1.108   1_545  S
C898        H903   1.109       .  S
C898        H904   1.111   1_545  S
C905        C906   1.402       .  A
C905        C910   1.397       .  A
C905        H912   1.083       .  S
C906        C907   1.412       .  A
C907        C914   1.511       .  S
C907        C908   1.398       .  A
C908        C909   1.407       .  A
C908        H913   1.083       .  S
C909        C910   1.414       .  A
C910        C911   1.509       .  S
C911        H915   1.109       .  S
C911        H916   1.110       .  S
C911        H917   1.107       .  S
C914        H918   1.108       .  S
C914        H919   1.110       .  S
C914        H920   1.111       .  S
C921        C922   1.398       .  A
C921        C926   1.393       .  A
C921        H928   1.079       .  S
C922        C923   1.414       .  A
C923        C930   1.503       .  S
C923        C924   1.396       .  A
C924        C925   1.400       .  A
C924        H929   1.085       .  S
C925        C926   1.416       .  A
C926        C927   1.511       .  S
C927        H931   1.111       .  S
C927        H932   1.107       .  S
C927        H933   1.110       .  S
C930        H934   1.099       .  S
C930        H935   1.109       .  S
C930        H936   1.111       .  S
C937        C938   1.413       .  A
C937        C942   1.414       .  A
C937        H944   1.083       .  S
C938        C939   1.419       .  A
C939        C946   1.503       .  S
C939        C940   1.414       .  A
C940        C941   1.415       .  A
C940        H945   1.082       .  S
C941        C942   1.423       .  A
C942        C943   1.504       .  S
C943        H947   1.107       .  S
C943        H948   1.111       .  S
C943        H949   1.110       .  S
C946        H950   1.110       .  S
C946        H951   1.110       .  S
C946        H952   1.110       .  S
C953        C954   1.406       .  A
C953        C958   1.405       .  A
C953        H960   1.084       .  S
C954        C955   1.411       .  A
C955        C962   1.502       .  S
C955        C956   1.391       .  A
C956        C957   1.397       .  A
C956        H961   1.083       .  S
C957        C958   1.409       .  A
C958        C959   1.506       .  S
C959        H963   1.111       .  S
C959        H964   1.109       .  S
C959        H965   1.111       .  S
C962        H966   1.102       .  S
C962        H967   1.107       .  S
C962        H968   1.111       .  S
C969        C970   1.404       .  A
C969        C974   1.398       .  A
C969        H976   1.082       .  S
C970        C971   1.409       .  A
C971        C978   1.507       .  S
C971        C972   1.393       .  A
C972        C973   1.406       .  A
C972        H977   1.084       .  S
C973        C974   1.407       .  A
C974        C975   1.508       .  S
C975        H979   1.109       .  S
C975        H980   1.107       .  S
C975        H981   1.104       .  S
C978        H982   1.105       .  S
C978        H983   1.110       .  S
C978        H984   1.111   1_556  S
C985        C986   1.418       .  A
C985        C990   1.417       .  A
C985        H992   1.082       .  S
C986        C987   1.418       .  A
C987        C994   1.505       .  S
C987        C988   1.413       .  A
C988        C989   1.419       .  A
C988        H993   1.081       .  S
C989        C990   1.416       .  A
C990        C991   1.505       .  S
C991        H995   1.111       .  S
C991        H996   1.108       .  S
C991        H997   1.110       .  S
C994        H998   1.109       .  S
C994        H999   1.110       .  S
C994       H1000   1.110       .  S
C1001      C1002   1.402       .  A
C1001      C1006   1.399       .  A
C1001      H1008   1.084       .  S
C1002      C1003   1.410       .  A
C1003      C1010   1.505       .  S
C1003      C1004   1.396       .  A
C1004      C1005   1.400       .  A
C1004      H1009   1.082       .  S
C1005      C1006   1.414       .  A
C1006      C1007   1.502       .  S
C1007      H1011   1.109       .  S
C1007      H1012   1.108       .  S
C1007      H1013   1.108       .  S
C1010      H1014   1.109       .  S
C1010      H1015   1.109       .  S
C1010      H1016   1.110       .  S
C1017      C1018   1.399       .  A
C1017      C1022   1.407       .  A
C1017      H1024   1.082       .  S
C1018      C1019   1.417       .  A
C1019      C1026   1.509       .  S
C1019      C1020   1.395       .  A
C1020      C1021   1.396       .  A
C1020      H1025   1.077       .  S
C1021      C1022   1.410       .  A
C1022      C1023   1.502       .  S
C1023      H1027   1.109       .  S
C1023      H1028   1.110       .  S
C1023      H1029   1.107       .  S
C1026      H1030   1.108       .  S
C1026      H1031   1.107       .  S
C1026      H1032   1.107       .  S
C1033      C1034   1.399       .  A
C1033      C1038   1.387       .  A
C1033      H1040   1.085       .  S
C1034      C1035   1.410       .  A
C1035      C1042   1.504       .  S
C1035      C1036   1.403       .  A
C1036      C1037   1.403       .  A
C1036      H1041   1.084       .  S
C1037      C1038   1.408       .  A
C1038      C1039   1.502       .  S
C1039      H1043   1.111       .  S
C1039      H1044   1.108       .  S
C1039      H1045   1.104       .  S
C1042      H1046   1.109       .  S
C1042      H1047   1.109       .  S
C1042      H1048   1.109       .  S
C1049      C1050   1.398       .  A
C1049      C1054   1.394       .  A
C1049      H1056   1.085       .  S
C1050      C1051   1.407       .  A
C1051      C1058   1.505       .  S
C1051      C1052   1.396       .  A
C1052      C1053   1.397       .  A
C1052      H1057   1.085       .  S
C1053      C1054   1.408       .  A
C1054      C1055   1.508       .  S
C1055      H1059   1.110       .  S
C1055      H1060   1.105       .  S
C1055      H1061   1.110       .  S
C1058      H1062   1.105       .  S
C1058      H1063   1.110       .  S
C1058      H1064   1.111       .  S
C1065      C1066   1.413       .  A
C1065      C1070   1.415       .  A
C1065      H1072   1.084       .  S
C1066      C1067   1.425       .  A
C1067      C1074   1.503       .  S
C1067      C1068   1.418       .  A
C1068      C1069   1.414       .  A
C1068      H1073   1.084       .  S
C1069      C1070   1.423       .  A
C1070      C1071   1.503       .  S
C1071      H1075   1.111       .  S
C1071      H1076   1.110       .  S
C1071      H1077   1.111       .  S
C1074      H1078   1.111       .  S
C1074      H1079   1.111       .  S
C1074      H1080   1.110       .  S
C1081      C1082   1.398       .  A
C1081      C1086   1.395       .  A
C1081      H1088   1.085       .  S
C1082      C1083   1.409       .  A
C1083      C1090   1.504       .  S
C1083      C1084   1.392       .  A
C1084      C1085   1.399       .  A
C1084      H1089   1.085       .  S
C1085      C1086   1.409       .  A
C1086      C1087   1.504       .  S
C1087      H1091   1.110       .  S
C1087      H1092   1.110       .  S
C1087      H1093   1.108       .  S
C1090      H1094   1.109       .  S
C1090      H1095   1.107       .  S
C1090      H1096   1.108       .  S
C1097      C1098   1.415       .  A
C1097      C1102   1.415       .  A
C1097      H1104   1.082       .  S
C1098      C1099   1.419       .  A
C1099      C1106   1.504       .  S
C1099      C1100   1.416       .  A
C1100      C1101   1.418       .  A
C1100      H1105   1.081       .  S
C1101      C1102   1.422       .  A
C1102      C1103   1.503       .  S
C1103      H1107   1.110   1_455  S
C1103      H1108   1.108       .  S
C1103      H1109   1.110       .  S
C1106      H1110   1.110       .  S
C1106      H1111   1.110       .  S
C1106      H1112   1.109       .  S
C1113      C1114   1.399       .  A
C1113      C1118   1.392       .  A
C1113      H1120   1.085       .  S
C1114      C1115   1.406       .  A
C1115      C1122   1.502       .  S
C1115      C1116   1.401       .  A
C1116      C1117   1.401       .  A
C1116      H1121   1.085       .  S
C1117      C1118   1.412       .  A
C1118      C1119   1.505       .  S
C1119      H1123   1.109       .  S
C1119      H1124   1.106       .  S
C1119      H1125   1.110       .  S
C1122      H1126   1.110       .  S
C1122      H1127   1.107       .  S
C1122      H1128   1.109       .  S
C1129      C1130   1.401       .  A
C1129      C1134   1.397       .  A
C1129      H1136   1.084       .  S
C1130      C1131   1.410       .  A
C1131      C1138   1.503       .  S
C1131      C1132   1.402       .  A
C1132      C1133   1.403       .  A
C1132      H1137   1.084       .  S
C1133      C1134   1.413       .  A
C1134      C1135   1.507       .  S
C1135      H1139   1.111       .  S
C1135      H1140   1.109       .  S
C1135      H1141   1.105       .  S
C1138      H1142   1.109       .  S
C1138      H1143   1.107       .  S
C1138      H1144   1.110       .  S
C1145      C1146   1.401       .  A
C1145      C1150   1.397       .  A
C1145      H1152   1.085       .  S
C1146      C1147   1.410       .  A
C1147      C1154   1.504       .  S
C1147      C1148   1.396       .  A
C1148      C1149   1.401       .  A
C1148      H1153   1.085       .  S
C1149      C1150   1.415       .  A
C1150      C1151   1.507       .  S
C1151      H1155   1.107       .  S
C1151      H1156   1.109       .  S
C1151      H1157   1.110       .  S
C1154      H1158   1.111       .  S
C1154      H1159   1.107       .  S
C1154      H1160   1.110       .  S
C1161      C1162   1.417       .  A
C1161      C1166   1.415       .  A
C1161      H1168   1.082       .  S
C1162      C1163   1.419       .  A
C1163      C1170   1.504       .  S
C1163      C1164   1.416       .  A
C1164      C1165   1.419       .  A
C1164      H1169   1.082       .  S
C1165      C1166   1.418       .  A
C1166      C1167   1.502       .  S
C1167      H1171   1.110   1_556  S
C1167      H1172   1.109       .  S
C1167      H1173   1.110   1_556  S
C1170      H1174   1.110       .  S
C1170      H1175   1.109       .  S
C1170      H1176   1.110       .  S
C1177      C1178   1.399       .  A
C1177      C1182   1.396       .  A
C1177      H1184   1.085       .  S
C1178      C1179   1.408       .  A
C1179      C1186   1.499       .  S
C1179      C1180   1.392       .  A
C1180      C1181   1.399       .  A
C1180      H1185   1.085       .  S
C1181      C1182   1.411       .  A
C1182      C1183   1.504       .  S
C1183      H1187   1.111       .  S
C1183      H1188   1.110       .  S
C1183      H1189   1.100       .  S
C1186      H1190   1.107       .  S
C1186      H1191   1.108       .  S
C1186      H1192   1.108       .  S
C1193      C1194   1.414       .  A
C1193      C1198   1.415       .  A
C1193      H1200   1.082       .  S
C1194      C1195   1.418       .  A
C1195      C1202   1.502       .  S
C1195      C1196   1.419       .  A
C1196      C1197   1.418       .  A
C1196      H1201   1.082       .  S
C1197      C1198   1.422       .  A
C1198      C1199   1.503       .  S
C1199      H1203   1.110       .  S
C1199      H1204   1.110       .  S
C1199      H1205   1.109       .  S
C1202      H1206   1.110       .  S
C1202      H1207   1.105       .  S
C1202      H1208   1.111       .  S
C1209      C1210   1.405       .  A
C1209      C1214   1.408       .  A
C1209      H1216   1.085       .  S
C1210      C1211   1.416       .  A
C1211      C1218   1.510       .  S
C1211      C1212   1.390       .  A
C1212      C1213   1.399       .  A
C1212      H1217   1.076       .  S
C1213      C1214   1.420       .  A
C1214      C1215   1.507       .  S
C1215      H1219   1.110       .  S
C1215      H1220   1.108       .  S
C1215      H1221   1.111       .  S
C1218      H1222   1.106       .  S
C1218      H1223   1.109       .  S
C1218      H1224   1.111       .  S
C1225      C1226   1.396       .  A
C1225      C1230   1.390       .  A
C1225      H1232   1.084       .  S
C1226      C1227   1.402       .  A
C1227      C1234   1.502       .  S
C1227      C1228   1.400       .  A
C1228      C1229   1.404       .  A
C1228      H1233   1.085       .  S
C1229      C1230   1.412       .  A
C1230      C1231   1.509       .  S
C1231      H1235   1.111       .  S
C1231      H1236   1.106       .  S
C1231      H1237   1.111       .  S
C1234      H1238   1.108       .  S
C1234      H1239   1.102       .  S
C1234      H1240   1.108       .  S
C1241      C1242   1.396       .  A
C1241      C1246   1.390       .  A
C1241      H1248   1.085       .  S
C1242      C1243   1.405       .  A
C1243      C1250   1.504       .  S
C1243      C1244   1.395       .  A
C1244      C1245   1.402       .  A
C1244      H1249   1.085       .  S
C1245      C1246   1.411       .  A
C1246      C1247   1.504       .  S
C1247      H1251   1.108       .  S
C1247      H1252   1.109       .  S
C1247      H1253   1.106       .  S
C1250      H1254   1.111       .  S
C1250      H1255   1.105       .  S
C1250      H1256   1.111       .  S
C1257      C1258   1.415       .  A
C1257      C1262   1.416       .  A
C1257      H1264   1.083       .  S
C1258      C1259   1.419       .  A
C1259      C1266   1.505       .  S
C1259      C1260   1.416       .  A
C1260      C1261   1.417       .  A
C1260      H1265   1.081       .  S
C1261      C1262   1.422       .  A
C1262      C1263   1.504       .  S
C1263      H1267   1.110       .  S
C1263      H1268   1.111       .  S
C1263      H1269   1.108       .  S
C1266      H1270   1.111       .  S
C1266      H1271   1.110       .  S
C1266      H1272   1.110       .  S
C1273      C1274   1.396       .  A
C1273      C1278   1.396       .  A
C1273      H1280   1.084       .  S
C1274      C1275   1.407       .  A
C1275      C1282   1.494       .  S
C1275      C1276   1.403       .  A
C1276      C1277   1.406       .  A
C1276      H1281   1.085       .  S
C1277      C1278   1.420       .  A
C1278      C1279   1.497       .  S
C1279      H1283   1.110       .  S
C1279      H1284   1.104       .  S
C1279      H1285   1.104       .  S
C1282      H1286   1.107       .  S
C1282      H1287   1.110       .  S
C1282      H1288   1.106       .  S
C1289      C1290   1.400       .  A
C1289      C1294   1.394       .  A
C1289      H1296   1.085       .  S
C1290      C1291   1.405       .  A
C1291      C1298   1.501       .  S
C1291      C1292   1.393       .  A
C1292      C1293   1.396       .  A
C1292      H1297   1.079       .  S
C1293      C1294   1.409       .  A
C1294      C1295   1.507       .  S
C1295      H1299   1.110       .  S
C1295      H1300   1.108       .  S
C1295      H1301   1.110       .  S
C1298      H1302   1.111       .  S
C1298      H1303   1.103       .  S
C1298      H1304   1.109       .  S
C1305      C1306   1.403       .  A
C1305      C1310   1.392       .  A
C1305      H1312   1.085       .  S
C1306      C1307   1.409       .  A
C1307      C1314   1.502       .  S
C1307      C1308   1.403       .  A
C1308      C1309   1.404       .  A
C1308      H1313   1.085       .  S
C1309      C1310   1.406       .  A
C1310      C1311   1.502       .  S
C1311      H1315   1.101       .  S
C1311      H1316   1.110       .  S
C1311      H1317   1.106       .  S
C1314      H1318   1.109       .  S
C1314      H1319   1.110       .  S
C1314      H1320   1.107       .  S
C1321      C1322   1.409       .  A
C1321      C1326   1.414       .  A
C1321      H1328   1.084       .  S
C1322      C1323   1.427       .  A
C1323      C1330   1.504       .  S
C1323      C1324   1.417       .  A
C1324      C1325   1.412       .  A
C1324      H1329   1.084       .  S
C1325      C1326   1.425       .  A
C1326      C1327   1.503   1_545  S
C1327      H1331   1.110       .  S
C1327      H1332   1.111       .  S
C1327      H1333   1.111       .  S
C1330      H1334   1.111       .  S
C1330      H1335   1.110       .  S
C1330      H1336   1.111       .  S
C1337      C1338   1.398       .  A
C1337      C1342   1.395       .  A
C1337      H1344   1.085       .  S
C1338      C1339   1.413       .  A
C1339      C1346   1.509       .  S
C1339      C1340   1.396       .  A
C1340      C1341   1.397       .  A
C1340      H1345   1.085       .  S
C1341      C1342   1.408       .  A
C1342      C1343   1.506       .  S
C1343      H1347   1.108       .  S
C1343      H1348   1.110       .  S
C1343      H1349   1.111       .  S
C1346      H1350   1.107       .  S
C1346      H1351   1.110       .  S
C1346      H1352   1.110       .  S
C1353      C1354   1.403       .  A
C1353      C1358   1.394       .  A
C1353      H1360   1.084       .  S
C1354      C1355   1.415       .  A
C1355      C1362   1.511       .  S
C1355      C1356   1.393       .  A
C1356      C1357   1.399       .  A
C1356      H1361   1.081       .  S
C1357      C1358   1.409       .  A
C1358      C1359   1.503       .  S
C1359      H1363   1.111       .  S
C1359      H1364   1.109       .  S
C1359      H1365   1.103       .  S
C1362      H1366   1.111       .  S
C1362      H1367   1.105       .  S
C1362      H1368   1.110   1_556  S
C1369      C1370   1.398       .  A
C1369      C1374   1.398       .  A
C1369      H1376   1.084       .  S
C1370      C1371   1.411       .  A
C1371      C1378   1.500       .  S
C1371      C1372   1.394       .  A
C1372      C1373   1.395       .  A
C1372      H1377   1.084       .  S
C1373      C1374   1.409       .  A
C1374      C1375   1.506       .  S
C1375      H1379   1.108       .  S
C1375      H1380   1.111       .  S
C1375      H1381   1.110       .  S
C1378      H1382   1.108       .  S
C1378      H1383   1.105       .  S
C1378      H1384   1.111       .  S
C1385      C1386   1.418       .  A
C1385      C1390   1.416       .  A
C1385      H1392   1.081       .  S
C1386      C1387   1.419       .  A
C1387      C1394   1.503       .  S
C1387      C1388   1.416       .  A
C1388      C1389   1.418       .  A
C1388      H1393   1.080       .  S
C1389      C1390   1.422       .  A
C1390      C1391   1.505       .  S
C1391      H1395   1.111       .  S
C1391      H1396   1.106       .  S
C1391      H1397   1.110       .  S
C1394      H1398   1.110   1_556  S
C1394      H1399   1.111   1_556  S
C1394      H1400   1.108       .  S
C1401      C1402   1.414       .  A
C1401      C1406   1.415       .  A
C1401      H1408   1.083       .  S
C1402      C1403   1.424       .  A
C1403      C1410   1.503       .  S
C1403      C1404   1.417       .  A
C1404      C1405   1.413       .  A
C1404      H1409   1.084       .  S
C1405      C1406   1.419       .  A
C1406      C1407   1.504       .  S
C1407      H1411   1.111       .  S
C1407      H1412   1.110       .  S
C1407      H1413   1.110       .  S
C1410      H1414   1.110       .  S
C1410      H1415   1.110       .  S
C1410      H1416   1.109       .  S
C1417      C1418   1.401       .  A
C1417      C1422   1.397       .  A
C1417      H1424   1.084       .  S
C1418      C1419   1.410       .  A
C1419      C1426   1.508       .  S
C1419      C1420   1.396       .  A
C1420      C1421   1.402       .  A
C1420      H1425   1.084       .  S
C1421      C1422   1.405       .  A
C1422      C1423   1.505       .  S
C1423      H1427   1.111       .  S
C1423      H1428   1.111       .  S
C1423      H1429   1.110       .  S
C1426      H1430   1.111       .  S
C1426      H1431   1.107       .  S
C1426      H1432   1.110       .  S
C1433      C1434   1.401       .  A
C1433      C1438   1.392       .  A
C1433      H1440   1.083       .  S
C1434      C1435   1.412       .  A
C1435      C1442   1.507       .  S
C1435      C1436   1.392       .  A
C1436      C1437   1.399       .  A
C1436      H1441   1.083       .  S
C1437      C1438   1.418       .  A
C1438      C1439   1.512       .  S
C1439      H1443   1.111       .  S
C1439      H1444   1.102       .  S
C1439      H1445   1.110       .  S
C1442      H1446   1.105       .  S
C1442      H1447   1.110       .  S
C1442      H1448   1.110       .  S
C1449      C1450   1.403       .  A
C1449      C1454   1.397       .  A
C1449      H1456   1.084       .  S
C1450      C1451   1.407       .  A
C1451      C1458   1.506       .  S
C1451      C1452   1.393       .  A
C1452      C1453   1.402       .  A
C1452      H1457   1.083       .  S
C1453      C1454   1.411       .  A
C1454      C1455   1.503       .  S
C1455      H1459   1.109       .  S
C1455      H1460   1.109       .  S
C1455      H1461   1.108       .  S
C1458      H1462   1.110       .  S
C1458      H1463   1.109       .  S
C1458      H1464   1.110       .  S
C1465      C1466   1.411       .  A
C1465      C1470   1.416       .  A
C1465      H1472   1.083       .  S
C1466      C1467   1.425       .  A
C1467      C1474   1.504       .  S
C1467      C1468   1.416       .  A
C1468      C1469   1.412       .  A
C1468      H1473   1.084       .  S
C1469      C1470   1.424       .  A
C1470      C1471   1.504       .  S
C1471      H1475   1.110       .  S
C1471      H1476   1.110       .  S
C1471      H1477   1.111       .  S
C1474      H1478   1.111       .  S
C1474      H1479   1.110       .  S
C1474      H1480   1.110       .  S
C1481      C1482   1.416       .  A
C1481      C1486   1.414       .  A
C1481      H1488   1.082       .  S
C1482      C1483   1.416       .  A
C1483      C1490   1.505       .  S
C1483      C1484   1.417       .  A
C1484      C1485   1.420       .  A
C1484      H1489   1.081       .  S
C1485      C1486   1.420       .  A
C1486      C1487   1.504       .  S
C1487      H1491   1.110   1_545  S
C1487      H1492   1.110       .  S
C1487      H1493   1.109       .  S
C1490      H1494   1.109       .  S
C1490      H1495   1.110       .  S
C1490      H1496   1.110       .  S
C1497      C1498   1.402       .  A
C1497      C1502   1.402       .  A
C1497      H1504   1.084       .  S
C1498      C1499   1.408       .  A
C1499      C1506   1.506       .  S
C1499      C1500   1.401       .  A
C1500      C1501   1.403       .  A
C1500      H1505   1.084       .  S
C1501      C1502   1.412       .  A
C1502      C1503   1.505       .  S
C1503      H1507   1.111       .  S
C1503      H1508   1.110       .  S
C1503      H1509   1.108       .  S
C1506      H1510   1.111       .  S
C1506      H1511   1.110       .  S
C1506      H1512   1.111       .  S
C1513      C1514   1.403       .  A
C1513      C1518   1.401       .  A
C1513      H1520   1.085       .  S
C1514      C1515   1.408       .  A
C1515      C1522   1.506       .  S
C1515      C1516   1.389       .  A
C1516      C1517   1.400       .  A
C1516      H1521   1.085       .  S
C1517      C1518   1.412       .  A
C1518      C1519   1.507       .  S
C1519      H1523   1.110       .  S
C1519      H1524   1.110       .  S
C1519      H1525   1.108       .  S
C1522      H1526   1.106       .  S
C1522      H1527   1.110       .  S
C1522      H1528   1.111       .  S
C1529      C1530   1.397       .  A
C1529      C1534   1.395       .  A
C1529      H1536   1.085       .  S
C1530      C1531   1.413       .  A
C1531      C1538   1.510       .  S
C1531      C1532   1.392       .  A
C1532      C1533   1.396       .  A
C1532      H1537   1.083       .  S
C1533      C1534   1.410       .  A
C1534      C1535   1.506       .  S
C1535      H1539   1.110       .  S
C1535      H1540   1.110       .  S
C1535      H1541   1.109       .  S
C1538      H1542   1.109       .  S
C1538      H1543   1.108       .  S
C1538      H1544   1.111       .  S
C1545      C1546   1.413       .  A
C1545      C1550   1.415       .  A
C1545      H1552   1.084       .  S
C1546      C1547   1.420       .  A
C1547      C1554   1.503       .  S
C1547      C1548   1.416       .  A
C1548      C1549   1.414       .  A
C1548      H1553   1.084       .  S
C1549      C1550   1.422       .  A
C1550      C1551   1.503       .  S
C1551      H1555   1.110       .  S
C1551      H1556   1.110       .  S
C1551      H1557   1.111       .  S
C1554      H1558   1.111       .  S
C1554      H1559   1.110       .  S
C1554      H1560   1.110       .  S
C1561      C1562   1.402       .  A
C1561      C1566   1.400       .  A
C1561      H1568   1.084       .  S
C1562      C1563   1.409       .  A
C1563      C1570   1.507       .  S
C1563      C1564   1.397       .  A
C1564      C1565   1.401       .  A
C1564      H1569   1.085       .  S
C1565      C1566   1.412       .  A
C1566      C1567   1.508       .  S
C1567      H1571   1.111       .  S
C1567      H1572   1.108       .  S
C1567      H1573   1.107       .  S
C1570      H1574   1.108       .  S
C1570      H1575   1.111       .  S
C1570      H1576   1.111       .  S
C1577      C1578   1.417       .  A
C1577      C1582   1.416       .  A
C1577      H1584   1.082       .  S
C1578      C1579   1.423       .  A
C1579      C1586   1.504       .  S
C1579      C1580   1.418       .  A
C1580      C1581   1.417       .  A
C1580      H1585   1.084       .  S
C1581      C1582   1.419       .  A
C1582      C1583   1.504       .  S
C1583      H1587   1.110       .  S
C1583      H1588   1.110       .  S
C1583      H1589   1.110       .  S
C1586      H1590   1.110       .  S
C1586      H1591   1.108       .  S
C1586      H1592   1.110       .  S
C1593      C1594   1.398       .  A
C1593      C1598   1.393       .  A
C1593      H1600   1.082       .  S
C1594      C1595   1.409       .  A
C1595      C1602   1.504       .  S
C1595      C1596   1.401       .  A
C1596      C1597   1.404       .  A
C1596      H1601   1.084       .  S
C1597      C1598   1.415       .  A
C1598      C1599   1.509       .  S
C1599      H1603   1.107       .  S
C1599      H1604   1.105       .  S
C1599      H1605   1.110       .  S
C1602      H1606   1.109       .  S
C1602      H1607   1.109       .  S
C1602      H1608   1.108       .  S
C1609      C1610   1.401       .  A
C1609      C1614   1.388       .  A
C1609      H1616   1.085       .  S
C1610      C1611   1.411       .  A
C1611      C1618   1.507       .  S
C1611      C1612   1.405       .  A
C1612      C1613   1.409       .  A
C1612      H1617   1.084       .  S
C1613      C1614   1.411       .  A
C1614      C1615   1.501       .  S
C1615      H1619   1.108       .  S
C1615      H1620   1.100       .  S
C1615      H1621   1.110       .  S
C1618      H1622   1.108       .  S
C1618      H1623   1.111       .  S
C1618      H1624   1.109       .  S
C1625      C1626   1.404       .  A
C1625      C1630   1.403       .  A
C1625      H1632   1.084       .  S
C1626      C1627   1.411       .  A
C1627      C1634   1.505       .  S
C1627      C1628   1.393       .  A
C1628      C1629   1.398       .  A
C1628      H1633   1.084       .  S
C1629      C1630   1.410       .  A
C1630      C1631   1.505       .  S
C1631      H1635   1.110       .  S
C1631      H1636   1.110       .  S
C1631      H1637   1.111       .  S
C1634      H1638   1.111       .  S
C1634      H1639   1.111       .  S
C1634      H1640   1.105       .  S
C1641      C1642   1.413       .  A
C1641      C1646   1.414       .  A
C1641      H1648   1.084       .  S
C1642      C1643   1.424       .  A
C1643      C1650   1.504       .  S
C1643      C1644   1.416       .  A
C1644      C1645   1.412       .  A
C1644      H1649   1.084       .  S
C1645      C1646   1.422       .  A
C1646      C1647   1.503       .  S
C1647      H1651   1.110       .  S
C1647      H1652   1.110       .  S
C1647      H1653   1.111       .  S
C1650      H1654   1.111       .  S
C1650      H1655   1.110       .  S
C1650      H1656   1.111       .  S
C1657      C1658   1.404       .  A
C1657      C1662   1.399       .  A
C1657      H1664   1.084       .  S
C1658      C1659   1.411       .  A
C1659      C1666   1.507       .  S
C1659      C1660   1.390       .  A
C1660      C1661   1.396       .  A
C1660      H1665   1.081       .  S
C1661      C1662   1.409       .  A
C1662      C1663   1.505       .  S
C1663      H1667   1.110       .  S
C1663      H1668   1.108       .  S
C1663      H1669   1.108       .  S
C1666      H1670   1.107       .  S
C1666      H1671   1.110       .  S
C1666      H1672   1.109       .  S
C1673      C1674   1.399       .  A
C1673      C1678   1.394       .  A
C1673      H1680   1.085       .  S
C1674      C1675   1.411       .  A
C1675      C1682   1.501       .  S
C1675      C1676   1.398       .  A
C1676      C1677   1.404       .  A
C1676      H1681   1.084       .  S
C1677      C1678   1.409       .  A
C1678      C1679   1.500       .  S
C1679      H1683   1.110       .  S
C1679      H1684   1.104       .  S
C1679      H1685   1.106       .  S
C1682      H1686   1.107       .  S
C1682      H1687   1.108       .  S
C1682      H1688   1.107       .  S
C1689      C1690   1.416       .  A
C1689      C1694   1.418       .  A
C1689      H1696   1.082       .  S
C1690      C1691   1.421       .  A
C1691      C1698   1.500       .  S
C1691      C1692   1.418       .  A
C1692      C1693   1.414       .  A
C1692      H1697   1.082       .  S
C1693      C1694   1.423       .  A
C1694      C1695   1.503       .  S
C1695      H1699   1.110       .  S
C1695      H1700   1.110       .  S
C1695      H1701   1.109       .  S
C1698      H1702   1.111       .  S
C1698      H1703   1.110       .  S
C1698      H1704   1.108       .  S
C1705      C1706   1.394       .  A
C1705      C1710   1.390       .  A
C1705      H1712   1.085       .  S
C1706      C1707   1.409       .  A
C1707      C1714   1.504       .  S
C1707      C1708   1.395       .  A
C1708      C1709   1.399       .  A
C1708      H1713   1.085       .  S
C1709      C1710   1.414       .  A
C1710      C1711   1.502       .  S
C1711      H1715   1.106       .  S
C1711      H1716   1.105       .  S
C1711      H1717   1.107       .  S
C1714      H1718   1.110       .  S
C1714      H1719   1.109       .  S
C1714      H1720   1.110       .  S
C1721      C1722   1.412       .  A
C1721      C1726   1.418       .  A
C1721      H1728   1.083       .  S
C1722      C1723   1.425       .  A
C1723      C1730   1.504       .  S
C1723      C1724   1.416       .  A
C1724      C1725   1.411       .  A
C1724      H1729   1.083       .  S
C1725      C1726   1.426       .  A
C1726      C1727   1.504       .  S
C1727      H1731   1.110       .  S
C1727      H1732   1.111       .  S
C1727      H1733   1.110       .  S
C1730      H1734   1.110       .  S
C1730      H1735   1.111       .  S
C1730      H1736   1.110       .  S
C1737      C1738   1.393       .  A
C1737      C1742   1.394       .  A
C1737      H1744   1.083       .  S
C1738      C1739   1.409       .  A
C1739      C1746   1.499       .  S
C1739      C1740   1.405       .  A
C1740      C1741   1.401       .  A
C1740      H1745   1.084       .  S
C1741      C1742   1.416       .  A
C1742      C1743   1.502       .  S
C1743      H1747   1.106       .  S
C1743      H1748   1.103       .  S
C1743      H1749   1.110       .  S
C1746      H1750   1.100       .  S
C1746      H1751   1.105       .  S
C1746      H1752   1.110       .  S
C1753      C1754   1.414       .  A
C1753      C1758   1.415       .  A
C1753      H1760   1.084       .  S
C1754      C1755   1.423       .  A
C1755      C1762   1.503       .  S
C1755      C1756   1.416       .  A
C1756      C1757   1.414       .  A
C1756      H1761   1.084       .  S
C1757      C1758   1.421       .  A
C1758      C1759   1.504       .  S
C1759      H1763   1.110       .  S
C1759      H1764   1.110       .  S
C1759      H1765   1.111       .  S
C1762      H1766   1.110       .  S
C1762      H1767   1.110       .  S
C1762      H1768   1.110       .  S
C1769      C1770   1.398       .  A
C1769      C1774   1.393       .  A
C1769      H1776   1.083       .  S
C1770      C1771   1.405       .  A
C1771      C1778   1.505       .  S
C1771      C1772   1.399       .  A
C1772      C1773   1.402       .  A
C1772      H1777   1.084       .  S
C1773      C1774   1.407       .  A
C1774      C1775   1.505       .  S
C1775      H1779   1.111       .  S
C1775      H1780   1.110       .  S
C1775      H1781   1.107       .  S
C1778      H1782   1.111       .  S
C1778      H1783   1.110       .  S
C1778      H1784   1.111       .  S
C1785      C1786   1.407       .  A
C1785      C1790   1.407       .  A
C1785      H1792   1.084       .  S
C1786      C1787   1.409       .  A
C1787      C1794   1.506       .  S
C1787      C1788   1.387       .  A
C1788      C1789   1.399       .  A
C1788      H1793   1.080       .  S
C1789      C1790   1.410       .  A
C1790      C1791   1.505       .  S
C1791      H1795   1.111       .  S
C1791      H1796   1.110       .  S
C1791      H1797   1.110       .  S
C1794      H1798   1.104       .  S
C1794      H1799   1.107       .  S
C1794      H1800   1.111       .  S
C1801      C1802   1.411       .  A
C1801      C1806   1.414       .  A
C1801      H1808   1.084       .  S
C1802      C1803   1.424       .  A
C1803      C1810   1.505       .  S
C1803      C1804   1.416       .  A
C1804      C1805   1.412       .  A
C1804      H1809   1.084       .  S
C1805      C1806   1.425       .  A
C1806      C1807   1.504       .  S
C1807      H1811   1.110       .  S
C1807      H1812   1.110       .  S
C1807      H1813   1.111       .  S
C1810      H1814   1.111       .  S
C1810      H1815   1.110       .  S
C1810      H1816   1.110       .  S
C1817      C1818   1.404       .  A
C1817      C1822   1.398       .  A
C1817      H1824   1.078       .  S
C1818      C1819   1.410       .  A
C1819      C1826   1.508       .  S
C1819      C1820   1.389       .  A
C1820      C1821   1.396       .  A
C1820      H1825   1.080       .  S
C1821      C1822   1.411       .  A
C1822      C1823   1.510       .  S
C1823      H1827   1.111       .  S
C1823      H1828   1.110       .  S
C1823      H1829   1.107       .  S
C1826      H1830   1.109       .  S
C1826      H1831   1.107       .  S
C1826      H1832   1.111       .  S
C1833      C1834   1.413       .  A
C1833      C1838   1.416       .  A
C1833      H1840   1.084       .  S
C1834      C1835   1.423       .  A
C1835      C1842   1.504       .  S
C1835      C1836   1.415       .  A
C1836      C1837   1.412       .  A
C1836      H1841   1.084       .  S
C1837      C1838   1.424       .  A
C1838      C1839   1.505       .  S
C1839      H1843   1.110       .  S
C1839      H1844   1.111       .  S
C1839      H1845   1.110       .  S
C1842      H1846   1.110       .  S
C1842      H1847   1.110       .  S
C1842      H1848   1.111       .  S
C1849      C1850   1.402       .  A
C1849      C1854   1.394       .  A
C1849      H1856   1.084       .  S
C1850      C1851   1.415       .  A
C1851      C1858   1.504       .  S
C1851      C1852   1.396       .  A
C1852      C1853   1.400       .  A
C1852      H1857   1.084       .  S
C1853      C1854   1.408       .  A
C1854      C1855   1.506       .  S
C1855      H1859   1.110       .  S
C1855      H1860   1.110       .  S
C1855      H1861   1.108       .  S
C1858      H1862   1.110       .  S
C1858      H1863   1.108       .  S
C1858      H1864   1.108       .  S
C1865      C1866   1.401       .  A
C1865      C1870   1.395       .  A
C1865      H1872   1.081       .  S
C1866      C1867   1.410       .  A
C1867      C1874   1.502       .  S
C1867      C1868   1.402       .  A
C1868      C1869   1.402       .  A
C1868      H1873   1.084       .  S
C1869      C1870   1.412       .  A
C1870      C1871   1.508       .  S
C1871      H1875   1.108       .  S
C1871      H1876   1.109       .  S
C1871      H1877   1.108       .  S
C1874      H1878   1.109       .  S
C1874      H1879   1.108       .  S
C1874      H1880   1.109       .  S
C1881      C1882   1.402       .  A
C1881      C1886   1.396       .  A
C1881      H1888   1.085       .  S
C1882      C1883   1.419       .  A
C1883      C1890   1.499       .  S
C1883      C1884   1.398       .  A
C1884      C1885   1.395       .  A
C1884      H1889   1.084       .  S
C1885      C1886   1.411       .  A
C1886      C1887   1.505       .  S
C1887      H1891   1.110       .  S
C1887      H1892   1.108       .  S
C1887      H1893   1.110       .  S
C1890      H1894   1.108       .  S
C1890      H1895   1.108       .  S
C1890      H1896   1.108       .  S
C1897      C1898   1.415       .  A
C1897      C1902   1.414       .  A
C1897      H1904   1.082       .  S
C1898      C1899   1.420       .  A
C1899      C1906   1.504       .  S
C1899      C1900   1.414       .  A
C1900      C1901   1.415       .  A
C1900      H1905   1.082       .  S
C1901      C1902   1.420       .  A
C1902      C1903   1.505       .  S
C1903      H1907   1.110       .  S
C1903      H1908   1.110       .  S
C1903      H1909   1.110       .  S
C1906      H1910   1.109       .  S
C1906      H1911   1.110       .  S
C1906      H1912   1.110       .  S
C1913      C1914   1.415       .  A
C1913      C1918   1.415       .  A
C1913      H1920   1.083       .  S
C1914      C1915   1.421       .  A
C1915      C1922   1.503       .  S
C1915      C1916   1.415       .  A
C1916      C1917   1.414       .  A
C1916      H1921   1.084       .  S
C1917      C1918   1.420       .  A
C1918      C1919   1.503       .  S
C1919      H1923   1.110       .  S
C1919      H1924   1.110       .  S
C1919      H1925   1.110       .  S
C1922      H1926   1.111       .  S
C1922      H1927   1.109       .  S
C1922      H1928   1.110       .  S
C1929      C1930   1.393       .  A
C1929      C1934   1.391       .  A
C1929      H1936   1.086       .  S
C1930      C1931   1.408       .  A
C1931      C1938   1.502       .  S
C1931      C1932   1.395       .  A
C1932      C1933   1.397       .  A
C1932      H1937   1.085       .  S
C1933      C1934   1.411       .  A
C1934      C1935   1.501       .  S
C1935      H1939   1.110       .  S
C1935      H1940   1.105       .  S
C1935      H1941   1.106       .  S
C1938      H1942   1.100       .  S
C1938      H1943   1.110       .  S
C1938      H1944   1.111       .  S
C1945      C1946   1.401       .  A
C1945      C1950   1.399       .  A
C1945      H1952   1.085       .  S
C1946      C1947   1.412       .  A
C1947      C1954   1.508       .  S
C1947      C1948   1.397       .  A
C1948      C1949   1.405       .  A
C1948      H1953   1.081       .  S
C1949      C1950   1.414       .  A
C1950      C1951   1.504       .  S
C1951      H1955   1.109       .  S
C1951      H1956   1.109       .  S
C1951      H1957   1.110       .  S
C1954      H1958   1.106       .  S
C1954      H1959   1.110       .  S
C1954      H1960   1.110       .  S
C1961      C1962   1.395       .  A
C1961      C1966   1.391       .  A
C1961      H1968   1.084       .  S
C1962      C1963   1.407       .  A
C1963      C1970   1.506       .  S
C1963      C1964   1.395       .  A
C1964      C1965   1.398       .  A
C1964      H1969   1.085       .  S
C1965      C1966   1.411       .  A
C1966      C1967   1.509       .  S
C1967      H1971   1.111       .  S
C1967      H1972   1.106       .  S
C1967      H1973   1.110       .  S
C1970      H1974   1.109       .  S
C1970      H1975   1.110       .  S
C1970      H1976   1.111       .  S
C1977      C1978   1.413       .  A
C1977      C1982   1.418       .  A
C1977      H1984   1.083       .  S
C1978      C1979   1.424       .  A
C1979      C1986   1.505       .  S
C1979      C1980   1.419       .  A
C1980      C1981   1.414       .  A
C1980      H1985   1.083       .  S
C1981      C1982   1.426       .  A
C1982      C1983   1.504       .  S
C1983      H1987   1.110       .  S
C1983      H1988   1.110       .  S
C1983      H1989   1.111       .  S
C1986      H1990   1.111       .  S
C1986      H1991   1.110       .  S
C1986      H1992   1.110       .  S
C1993      C1994   1.416       .  A
C1993      C1998   1.414       .  A
C1993      H2000   1.082       .  S
C1994      C1995   1.422       .  A
C1995      C2002   1.505       .  S
C1995      C1996   1.415       .  A
C1996      C1997   1.416       .  A
C1996      H2001   1.083       .  S
C1997      C1998   1.418       .  A
C1998      C1999   1.502       .  S
C1999      H2003   1.110       .  S
C1999      H2004   1.110       .  S
C1999      H2005   1.110       .  S
C2002      H2006   1.111       .  S
C2002      H2007   1.110       .  S
C2002      H2008   1.109       .  S
C2009      C2010   1.398       .  A
C2009      C2014   1.396       .  A
C2009      H2016   1.085       .  S
C2010      C2011   1.410       .  A
C2011      C2018   1.501       .  S
C2011      C2012   1.394       .  A
C2012      C2013   1.397       .  A
C2012      H2017   1.085       .  S
C2013      C2014   1.410       .  A
C2014      C2015   1.503       .  S
C2015      H2019   1.111       .  S
C2015      H2020   1.110       .  S
C2015      H2021   1.104       .  S
C2018      H2022   1.109       .  S
C2018      H2023   1.109       .  S
C2018      H2024   1.103       .  S
C2025      C2026   1.401       .  A
C2025      C2030   1.402       .  A
C2025      H2032   1.081       .  S
C2026      C2027   1.409       .  A
C2027      C2034   1.507       .  S
C2027      C2028   1.392       .  A
C2028      C2029   1.398       .  A
C2028      H2033   1.084       .  S
C2029      C2030   1.406       .  A
C2030      C2031   1.506       .  S
C2031      H2035   1.108       .  S
C2031      H2036   1.110       .  S
C2031      H2037   1.105       .  S
C2034      H2038   1.111       .  S
C2034      H2039   1.110       .  S
C2034      H2040   1.105       .  S
