geometry optimzed in LAMMPS
_audit_creation_date              2020-11-30 
_audit_creation_method            'lammps2cif' 
_symmetry_space_group_name_H-M    'P1' 
_symmetry_Int_Tables_number       1 
_symmetry_cell_setting            triclinic 
loop_ 
_symmetry_equiv_pos_as_xyz 
  x,y,z 
_cell_length_a                    35.61488591 
_cell_length_b                    35.078509825682545 
_cell_length_c                    35.97756193767813 
_cell_angle_alpha                 90.70888216082868 
_cell_angle_beta                  89.75722651301137 
_cell_angle_gamma                 90.2324743862704 
loop_ 
_atom_site_label 
_atom_site_type_symbol 
_atom_site_fract_x 
_atom_site_fract_y 
_atom_site_fract_z 
_atom_site_charge 
C1          C  0.41549552  0.40933843  0.43093940     0.42500
N2          N  0.46115433  0.44699091  0.44358911     0.01400
C3          C  0.56673132  0.45877487  0.60487245    -0.06500
H4          H  0.42412816  0.48471845  0.62157782     0.06900
C5          C  0.43553139  0.59899736  0.54097321    -0.06800
Co6        Co  0.50055712  0.42740789  0.51417740     0.74200
N7          N  0.45902245  0.46594721  0.57605194    -0.26000
Co8        Co  0.50084485  0.50689165  0.57251588     0.74100
C9          C  0.41822089  0.59138809  0.57696185     0.42600
N10         N  0.46305163  0.56067760  0.45469275     0.01000
N11         N  0.46102077  0.54981867  0.56616302     0.01100
N12         N  0.56460018  0.40663894  0.56743398    -0.46800
H13         H  0.42525866  0.37457524  0.48400601     0.06900
N14         N  0.45906818  0.43511465  0.55471079     0.01400
N15         N  0.54239258  0.54790837  0.56731576     0.01200
C16         C  0.58569842  0.58813514  0.58076112     0.42800
N17         N  0.46329186  0.53058750  0.43233831    -0.25500
C18         C  0.56900530  0.39511139  0.46816700    -0.06400
N19         N  0.43544244  0.43913471  0.41825931    -0.46600
N20         N  0.56687479  0.55749639  0.59333313    -0.46800
C21         C  0.58603828  0.40349144  0.43189320     0.42500
N22         N  0.54053835  0.43297612  0.55650268     0.01400
N23         N  0.54496539  0.52854442  0.43451209    -0.25500
N24         N  0.46014233  0.42354909  0.47200552    -0.26000
N25         N  0.54430166  0.55936532  0.45576692     0.01000
H26         H  0.57997046  0.51044282  0.38910951     0.06900
H27         H  0.57638356  0.62090079  0.52642408     0.07000
N28         N  0.54072692  0.46348221  0.57835360    -0.26000
N29         N  0.46190393  0.57215354  0.53694362    -0.25600
N30         N  0.54262491  0.44430998  0.44410966     0.01400
C31         C  0.41335000  0.42670365  0.59281232     0.42800
C32         C  0.43781389  0.53575424  0.40546894    -0.06900
N33         N  0.54332786  0.57087026  0.53852186    -0.25600
H34         H  0.43071167  0.62224109  0.52211806     0.06900
N35         N  0.43248311  0.41055242  0.56417139    -0.46900
H36         H  0.43315096  0.51695677  0.38190722     0.06900
C37         C  0.58916278  0.56967119  0.41687685     0.42600
C38         C  0.43209229  0.39842333  0.46637924    -0.06400
Co39       Co  0.50309686  0.48739477  0.43815642     0.73800
N40         N  0.43901948  0.58710090  0.44404259    -0.46600
C41         C  0.58242335  0.42072421  0.59785406     0.42900
N42         N  0.56794016  0.43424991  0.41884431    -0.46600
Co43       Co  0.50317740  0.56641189  0.49638512     0.73900
C44         C  0.57019638  0.59717522  0.54431294    -0.06900
C45         C  0.43059671  0.46373382  0.60029599    -0.06500
N46         N  0.54215569  0.42155994  0.47305656    -0.26000
N47         N  0.43556386  0.56062882  0.59105514    -0.46700
H48         H  0.57247632  0.47864753  0.62708072     0.06900
C49         C  0.57310706  0.53171480  0.41002485    -0.06900
Cl50       Cl  0.50205571  0.49699803  0.50532913    -0.49900
C51         C  0.42153048  0.57310937  0.41351404     0.42700
H52         H  0.57468107  0.37195988  0.48693659     0.06900
N53         N  0.56965546  0.58488417  0.44572309    -0.46600
C54         C  0.08983730  0.41462211  0.91600706     0.42500
N55         N  0.07338739  0.45315560  0.95983595     0.01400
C56         C  0.90797722  0.45770869  0.06148122    -0.06500
H57         H  0.88631107  0.46947064  0.92406661     0.06900
C58         C  0.96704650  0.59709333  0.92908714    -0.06800
Co59       Co  0.00176197  0.42957206  0.99727792     0.74200
N60         N  0.93755262  0.46073665  0.95437091    -0.26000
Co61       Co  0.93789433  0.50402459  0.99420517     0.74100
C62         C  0.93334263  0.58466069  0.90916225     0.42600
N63         N  0.05547218  0.56708195  0.96233619     0.01000
N64         N  0.94414296  0.54605753  0.95379462     0.01100
N65         N  0.94979560  0.40925057  0.06275255    -0.46800
H66         H  0.03749204  0.37700965  0.92489217     0.06900
N67         N  0.96162722  0.43228382  0.95527600     0.01400
N68         N  0.93769564  0.54678567  0.03445686     0.01200
C69         C  0.91701917  0.58771026  0.07423800     0.42800
N70         N  0.07929059  0.53838039  0.96287886    -0.25500
C71         C  0.04803107  0.40041517  0.06493008    -0.06400
N72         N  0.10050796  0.44596771  0.93541258    -0.46600
N73         N  0.90867596  0.55497460  0.05615361    -0.46800
C74         C  0.08344963  0.41157919  0.08261176     0.42500
N75         N  0.95816589  0.43390984  0.03630668     0.01400
N76         N  0.07340900  0.53656850  0.04309923    -0.25500
N77         N  0.04587107  0.42779690  0.95839960    -0.26000
N78         N  0.05001225  0.56570972  0.04274950     0.01000
H79         H  0.12179021  0.52337692  0.07604569     0.06900
H80         H  0.96980691  0.62547151  0.06738689     0.07000
N81         N  0.93396627  0.46229974  0.03482956    -0.26000
N82         N  0.97158506  0.57146091  0.95612970    -0.25600
N83         N  0.06951862  0.45223246  0.04077706     0.01400
C84         C  0.92149988  0.41558758  0.91373657     0.42800
C85         C  0.10726570  0.54534606  0.93881398    -0.06900
N86         N  0.96492978  0.57231120  0.03672842    -0.25600
H87         H  0.98406370  0.62234385  0.92506801     0.06900
N88         N  0.95269416  0.40434828  0.93176051    -0.46900
H89         H  0.13168439  0.52759178  0.93442605     0.06900
C90         C  0.08894440  0.57865696  0.08668183     0.42600
C91         C  0.05385290  0.40211685  0.93153152    -0.06400
Co92       Co  0.07430855  0.49501950  0.00157818     0.73800
N93         N  0.06612022  0.59428536  0.93932560    -0.46600
C94         C  0.91879395  0.42275859  0.08011606     0.42900
N95         N  0.09508597  0.44378348  0.06593720    -0.46600
Co96       Co  0.01058152  0.56992072  0.99966466     0.73900
C97         C  0.95446585  0.59945957  0.06137518    -0.06900
C98         C  0.91127910  0.45287844  0.92883846    -0.06500
N99         N  0.04192046  0.42714001  0.03925407    -0.26000
N100        N  0.92028006  0.55341971  0.92667284    -0.46700
H101        H  0.88407422  0.47567197  0.06631065     0.06900
C102        C  0.09809300  0.54163677  0.07054348    -0.06900
Cl103      Cl  0.00614052  0.49966269  0.99812262    -0.49900
C104        C  0.09854351  0.58256596  0.92336299     0.42700
H105        H  0.03115580  0.37503005  0.06894198     0.06900
N106        N  0.05887759  0.59209249  0.06802231    -0.46600
C107        C  0.75503316  0.24377431  0.74899511    -0.02400
C108        C  0.42866403  0.08276477  0.91216244     0.42500
N109        N  0.44097323  0.04553336  0.95788097     0.01400
C110        C  0.59959411  0.04219430  0.06807622    -0.06500
H111        H  0.62657050  0.01217292  0.92954134     0.06900
C112        C  0.54576332  0.89403280  0.93915632    -0.06800
Co113      Co  0.51208031  0.06757337  0.99662340     0.74200
N114        N  0.57712612  0.02930423  0.95975637    -0.26000
Co115      Co  0.57211253  0.99042622  0.00278739     0.74100
C116        C  0.58331166  0.90234027  0.92382253     0.42600
N117        N  0.45521675  0.93154467  0.96382634     0.01000
N118        N  0.56858435  0.94495043  0.96502968     0.01100
N119        N  0.56207473  0.09339677  0.06140399    -0.46800
H120        H  0.48615555  0.11306814  0.91888022     0.06900
N121        N  0.55458228  0.05890558  0.95735782     0.01400
N122        N  0.56557796  0.95199654  0.04562214     0.01200
C123        C  0.57762200  0.91507982  0.09101922     0.42800
N124        N  0.43212921  0.96088859  0.96281048    -0.25500
C125        C  0.46326143  0.10321379  0.06113205    -0.06400
N126        N  0.41508481  0.05387205  0.93296918    -0.46600
N127        N  0.59017384  0.94560182  0.07218565    -0.46800
C128        C  0.42740807  0.09346704  0.07868550     0.42500
N129        N  0.55302884  0.06568736  0.03773672     0.01400
N130        N  0.43211221  0.96636588  0.04346444    -0.25500
N131        N  0.47068089  0.06794678  0.95565250    -0.26000
N132        N  0.45512876  0.93703255  0.04479032     0.01000
H133        H  0.38363070  0.98226368  0.07636730     0.06900
H134        H  0.52522881  0.87821827  0.07894335     0.07000
N135        N  0.57510257  0.03580231  0.04051907    -0.26000
N136        N  0.53944086  0.92164379  0.96474264    -0.25600
N137        N  0.44106583  0.05057888  0.03823742     0.01400
C138        C  0.59589055  0.06766790  0.91447965     0.42800
C139        C  0.40592235  0.95416425  0.93700543    -0.06900
N140        N  0.53756700  0.92735109  0.04554567    -0.25600
H141        H  0.52709314  0.87044681  0.93329946     0.06900
N142        N  0.56512359  0.08280425  0.93105195    -0.46900
H143        H  0.38227710  0.97234931  0.93107690     0.06900
C144        C  0.41740768  0.92862531  0.09070563     0.42600
C145        C  0.46617411  0.09149508  0.92694942    -0.06400
Co146      Co  0.43592174  0.00588286  0.00059571     0.73800
N147        N  0.44574163  0.90410892  0.94002931    -0.46600
C148        C  0.59130601  0.08076561  0.08164819     0.42900
N149        N  0.41524578  0.06079605  0.06283670    -0.46600
Co150      Co  0.49660390  0.92861172  0.00450185     0.73900
C151        C  0.54268262  0.90273104  0.07327109    -0.06900
C152        C  0.60360598  0.03188830  0.93337682    -0.06500
N153        N  0.46943730  0.07484806  0.03643458    -0.26000
N154        N  0.59534227  0.93423352  0.94155747    -0.46700
H155        H  0.62138898  0.02275631  0.07633135     0.06900
C156        C  0.40708890  0.96341241  0.07132797    -0.06900
Cl157      Cl  0.50418191  0.99812294  0.00095904    -0.49900
C158        C  0.41508355  0.91661899  0.92202201     0.42700
H159        H  0.48082100  0.12820203  0.06514809     0.06900
N160        N  0.44689482  0.91349554  0.07214167    -0.46600
C161        C  0.25093705  0.75473385  0.74789768    -0.02400
C162        C  0.91976369  0.07537849  0.40469242     0.42500
N163        N  0.95879452  0.03273115  0.42284094     0.01400
C164        C  0.95780865  0.93918643  0.59185940    -0.06500
H165        H  0.97521879  0.08093309  0.60654428     0.06900
C166        C  0.10199796  0.06706853  0.53199704    -0.06800
Co167      Co  0.93573976  0.99828171  0.49516711     0.74200
N168        N  0.96621136  0.04561537  0.55790913    -0.26000
Co169      Co  0.00745469  0.00398905  0.55994228     0.74100
C170        C  0.09217678  0.08654361  0.56671497     0.42600
N171        N  0.07051070  0.03432987  0.44517686     0.01000
N172        N  0.05027588  0.04417981  0.55437943     0.01100
N173        N  0.91328771  0.93382940  0.54773063    -0.46800
H174        H  0.88669056  0.07158789  0.46006839     0.06900
N175        N  0.93872921  0.04351518  0.53344996     0.01400
N176        N  0.04836096  0.96167175  0.56060738     0.01200
C177        C  0.08630946  0.91851911  0.57885962     0.42800
N178        N  0.04357858  0.03289234  0.42003352    -0.25500
C179        C  0.90825688  0.92509577  0.45290017    -0.06400
N180        N  0.95052622  0.05517047  0.39472861    -0.46600
N181        N  0.05546357  0.93859001  0.58855238    -0.46800
C182        C  0.91961172  0.90407671  0.41944018     0.42500
N183        N  0.93836393  0.96032930  0.53927291     0.01400
N184        N  0.04200119  0.95038087  0.42567781    -0.25500
N185        N  0.93472316  0.03595513  0.45060745    -0.26000
N186        N  0.06921987  0.95180583  0.45041855     0.01000
H187        H  0.03284220  0.91575250  0.37665346     0.06900
H188        H  0.12313653  0.92451236  0.52644612     0.07000
N189        N  0.96494585  0.96363476  0.56445571    -0.26000
N190        N  0.07489913  0.04097942  0.52707168    -0.25600
N191        N  0.95850912  0.95020139  0.42952480     0.01400
C192        C  0.92331240  0.08980254  0.56991436     0.42800
C193        C  0.05140812  0.05891554  0.39389683    -0.06900
N194        N  0.07316436  0.95860019  0.53337410    -0.25600
H195        H  0.12704766  0.06974851  0.51510848     0.06900
N196        N  0.91214491  0.06904438  0.54004377    -0.46900
H197        H  0.03545893  0.06342247  0.36885244     0.06900
C198        C  0.08443965  0.90623063  0.41350405     0.42600
C199        C  0.90981455  0.06306906  0.44236948    -0.06400
Co200      Co  0.00068920  0.99155963  0.42374672     0.73800
N201        N  0.09671752  0.05995687  0.43772795    -0.46600
C202        C  0.92371356  0.91871800  0.58048745     0.42900
N203        N  0.95050525  0.92191425  0.40601507    -0.46600
Co204      Co  0.07248302  0.99629124  0.48885124     0.73900
C205        C  0.09829588  0.93185201  0.54233091    -0.06900
C206        C  0.95909988  0.07420063  0.58190734    -0.06500
N207        N  0.93387912  0.95298676  0.45691443    -0.26000
N208        N  0.05990227  0.07069028  0.57910840    -0.46700
H209        H  0.97379278  0.93751147  0.61723661     0.06900
C210        C  0.04894221  0.92213051  0.40139961    -0.06900
Cl211      Cl  0.00406892  0.99760922  0.49189911    -0.49900
C212        C  0.08670731  0.07686346  0.40592220     0.42700
H213        H  0.88349890  0.92137280  0.47001108     0.06900
N214        N  0.09566898  0.92625414  0.44370354    -0.46600
C215        C  0.74524794  0.74462540  0.24844109    -0.02400
C216        C  0.25501502  0.25197590  0.24902614    -0.02400
C217        C  0.75551839  0.25336876  0.24861381    -0.02400
C218        C  0.26004598  0.74617492  0.25032741    -0.02400
C219        C  0.25482013  0.24390036  0.74721738    -0.02400
C220        C  0.75936663  0.74904286  0.74819444    -0.02400
C221        C  0.11727081  0.10972801  0.59061063     0.01400
C222        C  0.10421521  0.14453633  0.60565305     0.04200
C223        C  0.12660947  0.16557024  0.63069814    -0.11800
C224        C  0.16233520  0.15201229  0.64054923     0.23500
C225        C  0.17601602  0.11790577  0.62462685    -0.12400
C226        C  0.15341888  0.09645080  0.60012004     0.04900
C227        C  0.18628676  0.17404960  0.66681826     0.27300
C228        C  0.20864081  0.20356216  0.65354052    -0.13100
C229        C  0.23429247  0.22249838  0.67720033     0.05400
C230        C  0.23304549  0.21720658  0.71744886    -0.09100
C231        C  0.21258271  0.18344029  0.72892466     0.06300
C232        C  0.18943749  0.16282669  0.70378075    -0.13400
Br233      Br  0.22601527  0.10078978  0.63655997    -0.05500
Br234      Br  0.05608526  0.16408941  0.59091443     0.00100
Br235      Br  0.27499862  0.24506743  0.64848181     0.00600
Br236      Br  0.15894645  0.12014879  0.72009720    -0.03800
Br237      Br  0.17176074  0.04785825  0.58205105     0.00700
Br238      Br  0.10866088  0.21322947  0.65115123    -0.03100
Br239      Br  0.20541524  0.21574923  0.60102337    -0.04000
Br240      Br  0.21057075  0.16478014  0.77908839     0.00000
C241        C  0.11124396  0.10351676  0.38513557     0.01400
C242        C  0.14968262  0.09514311  0.37951154     0.04200
C243        C  0.17297439  0.12096918  0.36050517    -0.11800
C244        C  0.15742641  0.15340395  0.34371119     0.23500
C245        C  0.11902075  0.16167996  0.34918123    -0.12400
C246        C  0.09672153  0.13798637  0.37168622     0.04900
C247        C  0.18169251  0.17829681  0.32032112     0.27300
C248        C  0.19165787  0.21509993  0.33219807    -0.13100
C249        C  0.21169833  0.23943642  0.30810825     0.05400
C250        C  0.23080157  0.22450882  0.27526772    -0.09100
C251        C  0.22656339  0.18368575  0.26964937     0.06300
C252        C  0.19714888  0.16397599  0.28722855    -0.13400
Br253      Br  0.09652782  0.20501945  0.32556040    -0.05500
Br254      Br  0.17075144  0.04770299  0.39620304     0.00100
Br255      Br  0.20612269  0.29294264  0.32010736     0.00600
Br256      Br  0.17937182  0.11593902  0.26677348    -0.03800
Br257      Br  0.04808324  0.15528352  0.38798390     0.00700
Br258      Br  0.22654200  0.11240405  0.35822294    -0.03100
Br259      Br  0.17715315  0.23223194  0.38154656    -0.04000
Br260      Br  0.26436590  0.14827872  0.25151998     0.00000
C261        C  0.78692587  0.77616519  0.72456727     0.01400
C262        C  0.78843367  0.81779037  0.72709472     0.04200
C263        C  0.81297725  0.83905842  0.70400896    -0.11800
C264        C  0.83531876  0.82106784  0.67710150     0.23500
C265        C  0.83645788  0.78133630  0.67525885    -0.12400
C266        C  0.81480098  0.75909151  0.69996241     0.04900
C267        C  0.85812318  0.84430250  0.65077942     0.27300
C268        C  0.84034792  0.86476298  0.62240052    -0.13100
C269        C  0.86137900  0.88910314  0.59932222     0.05400
C270        C  0.90111400  0.89104894  0.60269293    -0.09100
C271        C  0.91897418  0.86727336  0.62884490     0.06300
C272        C  0.89744434  0.84611828  0.65425040    -0.13400
Br273      Br  0.86554074  0.75754966  0.63551430    -0.05500
Br274      Br  0.76417748  0.85007892  0.76432259     0.00100
Br275      Br  0.83416224  0.92024922  0.56462005     0.00600
Br276      Br  0.92182154  0.82045117  0.69474854    -0.03800
Br277      Br  0.82242834  0.70492515  0.69389020     0.00700
Br278      Br  0.81825489  0.89412162  0.70954896    -0.03100
Br279      Br  0.78669695  0.85993075  0.61571443    -0.04000
Br280      Br  0.97267358  0.85943900  0.62802633     0.00000
C281        C  0.11013472  0.88343473  0.39055130     0.01400
C282        C  0.12190108  0.84767070  0.40311415     0.04200
C283        C  0.14705054  0.82593230  0.38164105    -0.11800
C284        C  0.15932470  0.83948028  0.34694220     0.23500
C285        C  0.14701381  0.87502114  0.33401979    -0.12400
C286        C  0.12339316  0.89759573  0.35636880     0.04900
C287        C  0.18417587  0.81588898  0.32324032     0.27300
C288        C  0.22239326  0.82433705  0.32091666    -0.13100
C289        C  0.24628523  0.80208554  0.29813604     0.05400
C290        C  0.23179012  0.77118974  0.27508041    -0.09100
C291        C  0.19100360  0.76711333  0.27515455     0.06300
C292        C  0.16865856  0.78700779  0.30125661    -0.13400
Br293      Br  0.16197334  0.89228065  0.28533022    -0.05500
Br294      Br  0.10241098  0.82795664  0.44908387     0.00100
Br295      Br  0.29895431  0.81342007  0.30450010     0.00600
Br296      Br  0.11497639  0.77702353  0.30582565    -0.03800
Br297      Br  0.11126973  0.94863937  0.34092294     0.00700
Br298      Br  0.16398415  0.77728247  0.39930134    -0.03100
Br299      Br  0.24191461  0.86579597  0.35150840    -0.04000
Br300      Br  0.16002633  0.74487697  0.23636926     0.00000
C301        C  0.89433188  0.88006979  0.39631429     0.01400
C302        C  0.87304075  0.89700606  0.36807849     0.04200
C303        C  0.84850782  0.87467267  0.34619419    -0.11800
C304        C  0.84549067  0.83504221  0.35184107     0.23500
C305        C  0.86632334  0.81816263  0.38057012    -0.12400
C306        C  0.89044146  0.84071077  0.40296451     0.04900
C307        C  0.82129499  0.81113631  0.32675736     0.27300
C308        C  0.78320188  0.80630421  0.33442615    -0.13100
C309        C  0.75930623  0.78759038  0.30857562     0.05400
C310        C  0.77374675  0.76787825  0.27563137    -0.09100
C311        C  0.81449268  0.76998855  0.27160984     0.06300
C312        C  0.83660716  0.79391777  0.29501992    -0.13400
Br313      Br  0.86162152  0.76416755  0.38907150    -0.05500
Br314      Br  0.87696761  0.95119353  0.35978339     0.00100
Br315      Br  0.70685358  0.79606191  0.31885340     0.00600
Br316      Br  0.88954843  0.80300815  0.28491181    -0.03800
Br317      Br  0.91838528  0.81780835  0.44259759     0.00700
Br318      Br  0.81880575  0.89864842  0.30860196    -0.03100
Br319      Br  0.76392084  0.82734639  0.38079695    -0.04000
Br320      Br  0.84574800  0.73776114  0.24094137     0.00000
C321        C  0.78577709  0.22484676  0.26686107     0.01400
C322        C  0.78699955  0.18334347  0.26166083     0.04200
C323        C  0.81206662  0.16062646  0.28229832    -0.11800
C324        C  0.83618464  0.17699742  0.30845042     0.23500
C325        C  0.83971708  0.21663352  0.31055443    -0.12400
C326        C  0.81647411  0.24038901  0.28894338     0.04900
C327        C  0.85799128  0.15183348  0.33358346     0.27300
C328        C  0.83917904  0.13086193  0.36123594    -0.13100
C329        C  0.85864374  0.10379752  0.38224757     0.05400
C330        C  0.89825589  0.10072390  0.37923951    -0.09100
C331        C  0.91689104  0.12150142  0.35089614     0.06300
C332        C  0.89657080  0.14580607  0.32747079    -0.13400
Br333      Br  0.87425529  0.23819511  0.34681573    -0.05500
Br334      Br  0.76179583  0.15270849  0.22383725     0.00100
Br335      Br  0.82908949  0.06717572  0.40960446     0.00600
Br336      Br  0.92110432  0.16954084  0.28558102    -0.03800
Br337      Br  0.82605296  0.29423039  0.29630937     0.00700
Br338      Br  0.81563669  0.10559129  0.27444487    -0.03100
Br339      Br  0.78596941  0.13786576  0.36932638    -0.04000
Br340      Br  0.97013365  0.11699810  0.34256889     0.00000
C341        C  0.10842759  0.89514197  0.60477025     0.01400
C342        C  0.11749916  0.85719212  0.59521103     0.04200
C343        C  0.13998933  0.83540574  0.61894302    -0.11800
C344        C  0.15272537  0.85111746  0.65288381     0.23500
C345        C  0.14276004  0.88865232  0.66305413    -0.12400
C346        C  0.12115222  0.91085312  0.63883888     0.04900
C347        C  0.17677664  0.82796869  0.67765786     0.27300
C348        C  0.16032793  0.80424406  0.70401813    -0.13100
C349        C  0.18235687  0.77870525  0.72480419     0.05400
C350        C  0.22326868  0.78006969  0.72323059    -0.09100
C351        C  0.23878773  0.80468842  0.69476530     0.06300
C352        C  0.21564730  0.82795933  0.67277172    -0.13400
Br353      Br  0.15884000  0.90949325  0.71023541    -0.05500
Br354      Br  0.09752319  0.83434532  0.55050935     0.00100
Br355      Br  0.15183795  0.73832488  0.74578535     0.00600
Br356      Br  0.23697918  0.86256098  0.63662123    -0.03800
Br357      Br  0.11093416  0.96341359  0.65169658     0.00700
Br358      Br  0.15346874  0.78388219  0.60513329    -0.03100
Br359      Br  0.10608346  0.80625968  0.70979164    -0.04000
Br360      Br  0.29192805  0.81195372  0.68610988     0.00000
C361        C  0.61339582  0.10519169  0.10778512     0.01400
C362        C  0.59453649  0.13108722  0.13179356     0.04200
C363        C  0.61506071  0.15717705  0.15387009    -0.11800
C364        C  0.65457941  0.15530877  0.15497088     0.23500
C365        C  0.67347190  0.12830202  0.13237125    -0.12400
C366        C  0.65321245  0.10459641  0.10767429     0.04900
C367        C  0.67650682  0.18286647  0.17842272     0.27300
C368        C  0.69733966  0.21179977  0.16158832    -0.13100
C369        C  0.72126807  0.23596637  0.18277416     0.05400
C370        C  0.72573997  0.23086689  0.22272532    -0.09100
C371        C  0.69887848  0.20479764  0.23928581     0.06300
C372        C  0.67620329  0.18025699  0.21717262    -0.13400
Br373      Br  0.72756247  0.12462637  0.13414325    -0.05500
Br374      Br  0.54041856  0.13023927  0.13596660     0.00100
Br375      Br  0.73919800  0.27888056  0.15402339     0.00600
Br376      Br  0.64776208  0.13904721  0.23953486    -0.03800
Br377      Br  0.68124701  0.07499454  0.07142686     0.00700
Br378      Br  0.58902154  0.19673695  0.18134517    -0.03100
Br379      Br  0.69096922  0.21868526  0.10835530    -0.04000
Br380      Br  0.69488742  0.19583121  0.29191582     0.00000
C381        C  0.28213789  0.22797642  0.22172820     0.01400
C382        C  0.26652401  0.20568199  0.19118070     0.04200
C383        C  0.28939692  0.18189406  0.16855504    -0.11800
C384        C  0.32796205  0.17925246  0.17495750     0.23500
C385        C  0.34443249  0.20112610  0.20314954    -0.12400
C386        C  0.32301455  0.22762487  0.22397089     0.04900
C387        C  0.35239495  0.15640963  0.14960593     0.27300
C388        C  0.36693272  0.12113436  0.16104010    -0.13100
C389        C  0.39320742  0.10175691  0.13855493     0.05400
C390        C  0.40381027  0.11664346  0.10386936    -0.09100
C391        C  0.38847883  0.15136041  0.09189008     0.06300
C392        C  0.36337441  0.17156463  0.11505226    -0.13400
Br393      Br  0.39807756  0.19551289  0.21162458    -0.05500
Br394      Br  0.21349219  0.20219322  0.18019855     0.00100
Br395      Br  0.41593531  0.05541885  0.15578966     0.00600
Br396      Br  0.34399255  0.22018119  0.09958081    -0.03800
Br397      Br  0.35501195  0.26688703  0.24571608     0.00700
Br398      Br  0.26787246  0.14962006  0.12995224    -0.03100
Br399      Br  0.35093252  0.09949105  0.20754202    -0.04000
Br400      Br  0.40005016  0.17029475  0.04300389     0.00000
C401        C  0.39238584  0.90560655  0.11433313     0.01400
C402        C  0.36969107  0.87721380  0.09780665     0.04200
C403        C  0.34765317  0.85319561  0.12008293    -0.11800
C404        C  0.34813857  0.85741078  0.15911257     0.23500
C405        C  0.37003044  0.88664265  0.17560991    -0.12400
C406        C  0.39229962  0.91056117  0.15322287     0.04900
C407        C  0.32654388  0.83047350  0.18285761     0.27300
C408        C  0.28827111  0.83589793  0.18922413    -0.13100
C409        C  0.26709757  0.80871500  0.20926582     0.05400
C410        C  0.28490277  0.77691442  0.22788826    -0.09100
C411        C  0.32577563  0.77719139  0.22587289     0.06300
C412        C  0.34487232  0.80038544  0.20005212    -0.13400
Br413      Br  0.36963553  0.89353429  0.22890471    -0.05500
Br414      Br  0.36914309  0.87090783  0.04443289     0.00100
Br415      Br  0.21357610  0.81611819  0.20546976     0.00600
Br416      Br  0.39757872  0.79225723  0.18875295    -0.03800
Br417      Br  0.42369434  0.94919618  0.17574137     0.00700
Br418      Br  0.31732953  0.81420198  0.09685383    -0.03100
Br419      Br  0.26494087  0.88069906  0.16839833    -0.04000
Br420      Br  0.36033990  0.75659375  0.26206330     0.00000
C421        C  0.73220240  0.77274341  0.77595294     0.01400
C422        C  0.73508908  0.77355148  0.81629589     0.04200
C423        C  0.71388592  0.79954484  0.83802415    -0.11800
C424        C  0.68224152  0.81713121  0.82335299     0.23500
C425        C  0.67469760  0.81290043  0.78544821    -0.12400
C426        C  0.70036993  0.79375424  0.76159986     0.04900
C427        C  0.65602753  0.83879758  0.84833892     0.27300
C428        C  0.63131314  0.81915300  0.87217253    -0.13100
C429        C  0.60802515  0.83943223  0.89736353     0.05400
C430        C  0.60714381  0.87989048  0.89702021    -0.09100
C431        C  0.63131481  0.89932359  0.87205130     0.06300
C432        C  0.65634287  0.87890574  0.84885484    -0.13400
Br433      Br  0.62916642  0.83536375  0.76625936    -0.05500
Br434      Br  0.75679782  0.73479173  0.84721948     0.00100
Br435      Br  0.58091119  0.81089467  0.93439176     0.00600
Br436      Br  0.69195129  0.90595076  0.81821757    -0.03800
Br437      Br  0.69168603  0.80266668  0.70966104     0.00700
Br438      Br  0.72713014  0.81041210  0.88931101    -0.03100
Br439      Br  0.62984148  0.76407253  0.87034673    -0.04000
Br440      Br  0.62985367  0.95413724  0.86783583     0.00000
C441        C  0.27974679  0.21545382  0.77201991     0.01400
C442        C  0.27761139  0.21314426  0.81247512     0.04200
C443        C  0.30397069  0.19171981  0.83280872    -0.11800
C444        C  0.33025012  0.16846740  0.81468411     0.23500
C445        C  0.32964301  0.16539216  0.77594225    -0.12400
C446        C  0.30419838  0.18720374  0.75477224     0.04900
C447        C  0.35752479  0.14590286  0.83695293     0.27300
C448        C  0.38740177  0.16450420  0.85524422    -0.13100
C449        C  0.40959685  0.14477342  0.88100106     0.05400
C450        C  0.40548521  0.10465985  0.88503351    -0.09100
C451        C  0.37712825  0.08562645  0.86416197     0.06300
C452        C  0.35213902  0.10647584  0.84194857    -0.13400
Br453      Br  0.36686687  0.13300214  0.75192359    -0.05500
Br454      Br  0.23545779  0.22904505  0.84356101     0.00100
Br455      Br  0.44103751  0.17514507  0.91353024     0.00600
Br456      Br  0.30942497  0.08125895  0.81941850    -0.03800
Br457      Br  0.30814803  0.17802010  0.70199351     0.00700
Br458      Br  0.30345534  0.19217787  0.88689991    -0.03100
Br459      Br  0.39700372  0.21778278  0.84569484    -0.04000
Br460      Br  0.37235211  0.03071337  0.86454415     0.00000
C461        C  0.60106138  0.89269914  0.11655279     0.01400
C462        C  0.58520334  0.87702172  0.14906326     0.04200
C463        C  0.60712365  0.85390087  0.17212655    -0.11800
C464        C  0.64518448  0.84747890  0.16345588     0.23500
C465        C  0.66143835  0.86432807  0.13195516    -0.12400
C466        C  0.63937960  0.88611326  0.10804632     0.04900
C467        C  0.66836827  0.82164429  0.18608681     0.27300
C468        C  0.69144690  0.83670256  0.21382373    -0.13100
C469        C  0.71991740  0.81430223  0.22950977     0.05400
C470        C  0.71981668  0.77306926  0.22482975    -0.09100
C471        C  0.69555978  0.75879305  0.19532886     0.06300
C472        C  0.67137871  0.78328851  0.17581988    -0.13400
Br473      Br  0.71415661  0.85667971  0.12126250    -0.05500
Br474      Br  0.53396823  0.88826760  0.16305710     0.00100
Br475      Br  0.76193802  0.84551703  0.24587653     0.00600
Br476      Br  0.63969569  0.76436604  0.13577317    -0.03800
Br477      Br  0.66187094  0.90379757  0.06232147     0.00700
Br478      Br  0.58511990  0.83071643  0.21539335    -0.03100
Br479      Br  0.68509031  0.88972431  0.22830111    -0.04000
Br480      Br  0.68930991  0.70583455  0.18198360     0.00000
C481        C  0.27570026  0.78046555  0.77576562     0.01400
C482        C  0.27618344  0.82204582  0.77669936     0.04200
C483        C  0.30393854  0.84208973  0.79687076    -0.11800
C484        C  0.32591671  0.82349643  0.82290350     0.23500
C485        C  0.32254451  0.78418499  0.82729020    -0.12400
C486        C  0.29889181  0.76246381  0.80367577     0.04900
C487        C  0.34946198  0.84635010  0.84875036     0.27300
C488        C  0.38673303  0.85587773  0.83931850    -0.13100
C489        C  0.40808298  0.87917225  0.86332821     0.05400
C490        C  0.39220852  0.89290911  0.89677693    -0.09100
C491        C  0.35483836  0.88337144  0.90620373     0.06300
C492        C  0.33358136  0.86000546  0.88223175    -0.13400
Br493      Br  0.35319474  0.76022540  0.86477101    -0.05500
Br494      Br  0.23648392  0.85624084  0.76088307     0.00100
Br495      Br  0.45846559  0.89401515  0.84952381     0.00600
Br496      Br  0.28249224  0.84654174  0.89502139    -0.03800
Br497      Br  0.30430557  0.70792084  0.80917355     0.00700
Br498      Br  0.31132454  0.89656403  0.79065053    -0.03100
Br499      Br  0.40825092  0.83755720  0.79329148    -0.04000
Br500      Br  0.33271067  0.90105231  0.95229886     0.00000
C501        C  0.89786800  0.11280578  0.59361627     0.01400
C502        C  0.90835115  0.15005534  0.60445665     0.04200
C503        C  0.88611275  0.17075180  0.63001167    -0.11800
C504        C  0.85199934  0.15515760  0.64306590     0.23500
C505        C  0.84067008  0.11852994  0.63085802    -0.12400
C506        C  0.86420034  0.09682059  0.60739272     0.04900
C507        C  0.82761116  0.17712092  0.66931111     0.27300
C508        C  0.82528622  0.16688344  0.70671155    -0.13100
C509        C  0.80177140  0.18723457  0.73176547     0.05400
C510        C  0.77868247  0.21869451  0.71951599    -0.09100
C511        C  0.77780423  0.22374117  0.67942937     0.06300
C512        C  0.80447948  0.20586216  0.65594868    -0.13400
Br513      Br  0.79271686  0.09811302  0.64636092    -0.05500
Br514      Br  0.95246867  0.17325924  0.58310796     0.00100
Br515      Br  0.80702747  0.17234485  0.78297058     0.00600
Br516      Br  0.80836719  0.21907488  0.60376793    -0.03800
Br517      Br  0.85137444  0.04424901  0.59675059     0.00700
Br518      Br  0.90259085  0.22028967  0.64728955    -0.03100
Br519      Br  0.85746884  0.12620450  0.72383468    -0.04000
Br520      Br  0.73658001  0.24452937  0.65109650     0.00000
C521        C  0.61994818  0.08850649  0.88750774     0.01400
C522        C  0.65954115  0.08996651  0.89143051     0.04200
C523        C  0.68150375  0.11107519  0.86626255    -0.11800
C524        C  0.66415651  0.13399797  0.83940910     0.23500
C525        C  0.62475706  0.13292426  0.83572194    -0.12400
C526        C  0.60293367  0.10918910  0.85865311     0.04900
C527        C  0.68731595  0.16074917  0.81672847     0.27300
C528        C  0.70440870  0.19231275  0.83375001    -0.13100
C529        C  0.73140473  0.21387713  0.81438432     0.05400
C530        C  0.73253502  0.21333845  0.77394924    -0.09100
C531        C  0.71306345  0.18103253  0.75705498     0.06300
C532        C  0.69387795  0.15374757  0.77890284    -0.13400
Br533      Br  0.60028627  0.16509471  0.80022197    -0.05500
Br534      Br  0.68442066  0.06746138  0.93339677     0.00100
Br535      Br  0.77111535  0.23062181  0.84774440     0.00600
Br536      Br  0.67526621  0.10657181  0.75711687    -0.03800
Br537      Br  0.54963098  0.10456462  0.84959600     0.00700
Br538      Br  0.73568279  0.10923493  0.86894909    -0.03100
Br539      Br  0.69227069  0.20472295  0.88507414    -0.04000
Br540      Br  0.70678630  0.17336986  0.70429696     0.00000
C541        C  0.10829486  0.38857886  0.10645592     0.01400
C542        C  0.12021673  0.35185310  0.09500425     0.04200
C543        C  0.14645525  0.33177576  0.11634605    -0.11800
C544        C  0.16068799  0.34799110  0.14944457     0.23500
C545        C  0.14914519  0.38476247  0.16072180    -0.12400
C546        C  0.12280476  0.40483816  0.13948069     0.04900
C547        C  0.18432025  0.32450472  0.17436006     0.27300
C548        C  0.16706704  0.30370471  0.20250518    -0.13100
C549        C  0.18774293  0.27762360  0.22390071     0.05400
C550        C  0.22868779  0.27665970  0.22220446    -0.09100
C551        C  0.24514456  0.29862900  0.19217244     0.06300
C552        C  0.22287895  0.32093849  0.16829242    -0.13400
Br553      Br  0.16906727  0.40727209  0.20566473    -0.05500
Br554      Br  0.10153777  0.32872149  0.04988723     0.00100
Br555      Br  0.15466165  0.24015618  0.24620074     0.00600
Br556      Br  0.24503524  0.34881113  0.12738872    -0.03800
Br557      Br  0.10470160  0.45370685  0.15692290     0.00700
Br558      Br  0.16301285  0.28175919  0.10044178    -0.03100
Br559      Br  0.11323866  0.31008323  0.20972182    -0.04000
Br560      Br  0.29835390  0.30407261  0.18357434     0.00000
C561        C  0.23768512  0.71782928  0.22297887     0.01400
C562        C  0.22002639  0.68333789  0.23676469     0.04200
C563        C  0.20049122  0.65816806  0.21271764    -0.11800
C564        C  0.18947352  0.67034193  0.17759103     0.23500
C565        C  0.20453543  0.70427564  0.16381064    -0.12400
C566        C  0.23309166  0.72362283  0.18346176     0.04900
C567        C  0.16352031  0.64668654  0.15445123     0.27300
C568        C  0.17719915  0.62813780  0.12219441    -0.13100
C569        C  0.15258221  0.60728666  0.09915641     0.05400
C570        C  0.11450286  0.60251828  0.10958812    -0.09100
C571        C  0.10119174  0.61986342  0.14251123     0.06300
C572        C  0.12530891  0.64253343  0.16448025    -0.13400
Br573      Br  0.18607056  0.72441739  0.11751646    -0.05500
Br574      Br  0.21482197  0.67046555  0.28843643     0.00100
Br575      Br  0.17129381  0.58768436  0.05226640     0.00600
Br576      Br  0.10553968  0.66741240  0.20838510    -0.03800
Br577      Br  0.26901313  0.74672982  0.15019666     0.00700
Br578      Br  0.18740086  0.60705889  0.22810396    -0.03100
Br579      Br  0.23011101  0.63040013  0.11004117    -0.04000
Br580      Br  0.05033866  0.61087348  0.15863000     0.00000
C581        C  0.88997513  0.60917602  0.09806375     0.01400
C582        C  0.90108685  0.62271493  0.13337857     0.04200
C583        C  0.87563256  0.64276696  0.15629048    -0.11800
C584        C  0.83865659  0.64951926  0.14422350     0.23500
C585        C  0.82682927  0.63444537  0.10969251    -0.12400
C586        C  0.85244241  0.61479145  0.08644714     0.04900
C587        C  0.81224554  0.67233483  0.16790649     0.27300
C588        C  0.79221320  0.65499438  0.19651946    -0.13100
C589        C  0.76621015  0.67606137  0.21821422     0.05400
C590        C  0.76615878  0.71769028  0.21793221    -0.09100
C591        C  0.78471123  0.73383750  0.18563361     0.06300
C592        C  0.80620698  0.71093234  0.16074162    -0.13400
Br593      Br  0.77509415  0.63997828  0.09486309    -0.05500
Br594      Br  0.95039851  0.61142274  0.15187632     0.00100
Br595      Br  0.72652711  0.64310728  0.23686811     0.00600
Br596      Br  0.83030513  0.73266296  0.11740208    -0.03800
Br597      Br  0.83586415  0.59714744  0.03818974     0.00700
Br598      Br  0.89124805  0.65933071  0.20503377    -0.03100
Br599      Br  0.79907404  0.60073941  0.20394865    -0.04000
Br600      Br  0.78724501  0.78765901  0.17530684     0.00000
C601        C  0.22863743  0.72574523  0.77456298     0.01400
C602        C  0.22801001  0.68427835  0.77049752     0.04200
C603        C  0.20499288  0.66144679  0.79357628    -0.11800
C604        C  0.18702041  0.67707140  0.82467685     0.23500
C605        C  0.19056033  0.71592264  0.83248602    -0.12400
C606        C  0.20912917  0.74030900  0.80733631     0.04900
C607        C  0.16462855  0.65227224  0.84981346     0.27300
C608        C  0.12598142  0.64672508  0.84348397    -0.13100
C609        C  0.10465761  0.62349803  0.86724779     0.05400
C610        C  0.12170607  0.60609852  0.89801844    -0.09100
C611        C  0.16046079  0.61213386  0.90465325     0.06300
C612        C  0.18193094  0.63454416  0.88015157    -0.13400
Br613      Br  0.16807237  0.73551771  0.87806641    -0.05500
Br614      Br  0.26202647  0.65319076  0.74117478     0.00100
Br615      Br  0.05222656  0.61451743  0.85649482     0.00600
Br616      Br  0.23519480  0.64123823  0.88795270    -0.03800
Br617      Br  0.20162271  0.79361304  0.81834297     0.00700
Br618      Br  0.19881298  0.60705386  0.78437833    -0.03100
Br619      Br  0.10222588  0.67075088  0.80192729    -0.04000
Br620      Br  0.18409306  0.59271546  0.94865086     0.00000
C621        C  0.90966980  0.60841549  0.88501350     0.01400
C622        C  0.88272916  0.63285080  0.90113249     0.04200
C623        C  0.85810189  0.65344309  0.87848187    -0.11800
C624        C  0.86143149  0.65132709  0.83938665     0.23500
C625        C  0.88914518  0.62753885  0.82324856    -0.12400
C626        C  0.91280962  0.60572111  0.84603534     0.04900
C627        C  0.83663099  0.67493667  0.81536833     0.27300
C628        C  0.80601514  0.65851925  0.79697215    -0.13100
C629        C  0.78474507  0.67978019  0.77135301     0.05400
C630        C  0.78735261  0.72128962  0.77045299    -0.09100
C631        C  0.81926423  0.73702907  0.79066577     0.06300
C632        C  0.84444808  0.71357625  0.81032939    -0.13400
Br633      Br  0.89474485  0.62508576  0.76992174    -0.05500
Br634      Br  0.88014878  0.63876845  0.95446559     0.00100
Br635      Br  0.76184130  0.64652406  0.73437410     0.00600
Br636      Br  0.88967339  0.73444563  0.83267105    -0.03800
Br637      Br  0.94959233  0.57207050  0.82407406     0.00700
Br638      Br  0.81933577  0.68382567  0.90136668    -0.03100
Br639      Br  0.79415806  0.60552802  0.80667367    -0.04000
Br640      Br  0.82832393  0.79073906  0.79857626     0.00000
C641        C  0.11531268  0.39223731  0.89160750     0.01400
C642        C  0.13448695  0.36056079  0.90577223     0.04200
C643        C  0.15772909  0.33835681  0.88243615    -0.11800
C644        C  0.16196474  0.34762958  0.84463328     0.23500
C645        C  0.14399625  0.38027671  0.83075780    -0.12400
C646        C  0.12083327  0.40261450  0.85427479     0.04900
C647        C  0.18425636  0.32217855  0.81938426     0.27300
C648        C  0.22305817  0.32643612  0.81670114    -0.13100
C649        C  0.24480717  0.29999723  0.79603551     0.05400
C650        C  0.22785859  0.27006846  0.77315871    -0.09100
C651        C  0.18687070  0.26886815  0.77460210     0.06300
C652        C  0.16639545  0.29315748  0.79916277    -0.13400
Br653      Br  0.15106566  0.39405019  0.77948854    -0.05500
Br654      Br  0.12975946  0.34811788  0.95749482     0.00100
Br655      Br  0.29801544  0.30463676  0.80504281     0.00600
Br656      Br  0.11230635  0.28822710  0.80524630    -0.03800
Br657      Br  0.09617965  0.44717577  0.83543822     0.00700
Br658      Br  0.18370995  0.29508529  0.90230908    -0.03100
Br659      Br  0.24625597  0.36890910  0.84307958    -0.04000
Br660      Br  0.15368172  0.24069776  0.74182842     0.00000
C661        C  0.89543742  0.40043764  0.10598697     0.01400
C662        C  0.90727033  0.39484952  0.14282811     0.04200
C663        C  0.88503109  0.37314418  0.16732649    -0.11800
C664        C  0.85104865  0.35663789  0.15489431     0.23500
C665        C  0.83935198  0.36237109  0.11796135    -0.12400
C666        C  0.86134088  0.38431982  0.09365684     0.04900
C667        C  0.82832351  0.33191189  0.18001018     0.27300
C668        C  0.83364572  0.29261313  0.17932732    -0.13100
C669        C  0.80952142  0.26825893  0.19950448     0.05400
C670        C  0.78103216  0.28279728  0.22504136    -0.09100
C671        C  0.78006146  0.32436651  0.22821433     0.06300
C672        C  0.80149202  0.34769485  0.20396745    -0.13400
Br673      Br  0.79352125  0.33958555  0.10013022    -0.05500
Br674      Br  0.95368104  0.41754297  0.15971319     0.00100
Br675      Br  0.81451389  0.21567304  0.18482376     0.00600
Br676      Br  0.79592698  0.40276799  0.20386798    -0.03800
Br677      Br  0.84534991  0.39085302  0.04287220     0.00700
Br678      Br  0.90115682  0.36556303  0.21778566    -0.03100
Br679      Br  0.87408710  0.27245294  0.14854334    -0.04000
Br680      Br  0.75726569  0.35421165  0.26779573     0.00000
C681        C  0.78172580  0.27026872  0.77447132     0.01400
C682        C  0.82267531  0.26909579  0.77477598     0.04200
C683        C  0.84332676  0.28866243  0.80252853    -0.11800
C684        C  0.82630975  0.31648402  0.82479860     0.23500
C685        C  0.78766212  0.32238374  0.82231129    -0.12400
C686        C  0.76523893  0.29901170  0.79890895     0.04900
C687        C  0.84994928  0.34209824  0.84834934     0.27300
C688        C  0.86046658  0.33130040  0.88441788    -0.13100
C689        C  0.88419991  0.35507035  0.90579454     0.05400
C690        C  0.89694729  0.39016287  0.89136669    -0.09100
C691        C  0.88515235  0.40155234  0.85583855     0.06300
C692        C  0.86246108  0.37718959  0.83407497    -0.13400
Br693      Br  0.76550931  0.36163626  0.85372990    -0.05500
Br694      Br  0.85568290  0.25189760  0.73490350     0.00100
Br695      Br  0.89720008  0.34026295  0.95562958     0.00600
Br696      Br  0.84896487  0.39141681  0.78422702    -0.03800
Br697      Br  0.71183272  0.30584841  0.80603080     0.00700
Br698      Br  0.89648307  0.27896450  0.80959358    -0.03100
Br699      Br  0.84218702  0.28394578  0.90444847    -0.04000
Br700      Br  0.90048557  0.45034229  0.83655943     0.00000
C701        C  0.73105700  0.72560556  0.72152784     0.01400
C702        C  0.73224968  0.72542712  0.68098285     0.04200
C703        C  0.71188317  0.69804136  0.66022837    -0.11800
C704        C  0.68267469  0.67765038  0.67661903     0.23500
C705        C  0.67557926  0.68204181  0.71462297    -0.12400
C706        C  0.70020636  0.70379750  0.73731760     0.04900
C707        C  0.65725973  0.65427292  0.65281294     0.27300
C708        C  0.62597398  0.67148494  0.63617178    -0.13100
C709        C  0.60271216  0.65017731  0.61211222     0.05400
C710        C  0.61081554  0.61145367  0.60447230    -0.09100
C711        C  0.64167369  0.59405832  0.62183326     0.06300
C712        C  0.66500064  0.61551034  0.64569004    -0.13400
Br713      Br  0.63254951  0.65576403  0.73548582    -0.05500
Br714      Br  0.75000370  0.76604176  0.64892430     0.00100
Br715      Br  0.55838533  0.67377441  0.59218237     0.00600
Br716      Br  0.70783920  0.59189461  0.66822186    -0.03800
Br717      Br  0.69185872  0.69733342  0.78994572     0.00700
Br718      Br  0.72210241  0.68953597  0.60771765    -0.03100
Br719      Br  0.61494572  0.72438252  0.64684252    -0.04000
Br720      Br  0.65255424  0.54085460  0.61245178     0.00000
C721        C  0.27886999  0.27537643  0.72555322     0.01400
C722        C  0.25931753  0.30636887  0.70737085     0.04200
C723        C  0.27896186  0.33592070  0.68952952    -0.11800
C724        C  0.31711671  0.33206736  0.68192408     0.23500
C725        C  0.33698338  0.30160174  0.69690051    -0.12400
C726        C  0.31960467  0.27670893  0.72233201     0.04900
C727        C  0.33729146  0.36073468  0.65927512     0.27300
C728        C  0.33387133  0.36064332  0.62025196    -0.13100
C729        C  0.35748645  0.38393046  0.59878394     0.05400
C730        C  0.38573876  0.40614091  0.61607565    -0.09100
C731        C  0.38834705  0.40688110  0.65539513     0.06300
C732        C  0.36290029  0.38563702  0.67678940    -0.13400
Br733      Br  0.38900739  0.29441219  0.68202985    -0.05500
Br734      Br  0.20571139  0.30823243  0.69937914     0.00100
Br735      Br  0.35083599  0.38521777  0.54556961     0.00600
Br736      Br  0.36370917  0.38936216  0.73045916    -0.03800
Br737      Br  0.35625245  0.25294560  0.75422306     0.00700
Br738      Br  0.25349809  0.38164501  0.67365806    -0.03100
Br739      Br  0.29761702  0.32799156  0.59590032    -0.04000
Br740      Br  0.42927942  0.43213152  0.68091163     0.00000
C741        C  0.61363552  0.38093195  0.40944559     0.01400
C742        C  0.64186654  0.40008972  0.38894153     0.04200
C743        C  0.66615061  0.37953532  0.36508836    -0.11800
C744        C  0.66286882  0.33963725  0.36162461     0.23500
C745        C  0.63564053  0.32025021  0.38282076    -0.12400
C746        C  0.61061249  0.34073174  0.40604612     0.04900
C747        C  0.68607182  0.31816592  0.33376583     0.27300
C748        C  0.67353830  0.31376728  0.29724365    -0.13100
C749        C  0.69612219  0.29510833  0.27011264     0.05400
C750        C  0.73002938  0.27454671  0.28005594    -0.09100
C751        C  0.73702064  0.27399322  0.31996722     0.06300
C752        C  0.71895604  0.29997325  0.34441938    -0.15000
Br753      Br  0.63198366  0.26539608  0.37878430    -0.05500
Br754      Br  0.64792879  0.45473723  0.39330774     0.00100
Br755      Br  0.67998582  0.30466053  0.22010430     0.00600
Br756      Br  0.73760451  0.30903673  0.39429084    -0.03800
Br757      Br  0.56991634  0.31334661  0.42935971     0.00700
Br758      Br  0.70374224  0.40614740  0.33663429    -0.03100
Br759      Br  0.62534898  0.33562314  0.28456305    -0.04000
Br760      Br  0.75867553  0.23277100  0.34791614     0.00000
C761        C  0.28532679  0.71872158  0.27539712     0.01400
C762        C  0.30845730  0.68962981  0.25774289     0.04200
C763        C  0.33091060  0.66467925  0.27880084    -0.11800
C764        C  0.33359284  0.66908294  0.31735229     0.23500
C765        C  0.31220098  0.69690744  0.33551020    -0.12400
C766        C  0.28543362  0.71836083  0.31595396     0.04900
C767        C  0.35707255  0.64279335  0.33969423     0.27300
C768        C  0.34044944  0.61067570  0.35647157    -0.13100
C769        C  0.36172332  0.58744700  0.38009654     0.05400
C770        C  0.39954537  0.59656400  0.38755611    -0.09100
C771        C  0.41638796  0.62822869  0.37016843     0.06300
C772        C  0.39521429  0.65121628  0.34627506    -0.13400
Br773      Br  0.31886768  0.70378489  0.38875994    -0.05500
Br774      Br  0.31455783  0.68420260  0.20449736     0.00100
Br775      Br  0.33869388  0.54392825  0.40339132     0.00600
Br776      Br  0.41819130  0.69477095  0.32309808    -0.03800
Br777      Br  0.24564740  0.73578888  0.34916472     0.00700
Br778      Br  0.36023190  0.62487587  0.25496166    -0.03100
Br779      Br  0.28810468  0.59935155  0.34785764    -0.04000
Br780      Br  0.46883603  0.63964761  0.37822524     0.00000
C781        C  0.61531013  0.59229812  0.39328258     0.01400
C782        C  0.63714375  0.62171049  0.41001525     0.04200
C783        C  0.65763677  0.64720887  0.38785409    -0.11800
C784        C  0.65993426  0.64124966  0.34920399     0.23500
C785        C  0.64056654  0.61049735  0.33254795    -0.12400
C786        C  0.61677773  0.58732922  0.35399834     0.04900
C787        C  0.68074386  0.66878375  0.32566633     0.27300
C788        C  0.66086604  0.69497202  0.30459462    -0.13100
C789        C  0.67976720  0.72040509  0.28058822     0.05400
C790        C  0.72067958  0.71943687  0.27659060    -0.09100
C791        C  0.73987030  0.69446882  0.30215805     0.06300
C792        C  0.71989711  0.66895448  0.32507778    -0.13400
Br793      Br  0.64523103  0.60135992  0.27963312    -0.05500
Br794      Br  0.64051773  0.62722179  0.46344836     0.00100
Br795      Br  0.64534981  0.75813320  0.26113698     0.00600
Br796      Br  0.74589973  0.63079158  0.35379589    -0.03800
Br797      Br  0.58378642  0.55282133  0.32731414     0.00700
Br798      Br  0.68116097  0.69161701  0.41016232    -0.03100
Br799      Br  0.60640258  0.69601464  0.31066714    -0.04000
Br800      Br  0.79383691  0.68873624  0.30429487     0.00000
C801        C  0.60923423  0.39851349  0.62114215     0.01400
C802        C  0.60677825  0.39883745  0.66055078     0.04200
C803        C  0.63227588  0.37748921  0.68187566    -0.11800
C804        C  0.65845149  0.35307148  0.66433602     0.23500
C805        C  0.66088887  0.35257930  0.62515811    -0.12400
C806        C  0.63707308  0.37568201  0.60376933     0.04900
C807        C  0.68198073  0.32662299  0.68703718     0.27300
C808        C  0.72006127  0.33409600  0.69301718    -0.13100
C809        C  0.74318229  0.30689055  0.71047723     0.05400
C810        C  0.72766511  0.27338394  0.72845092    -0.09100
C811        C  0.68687578  0.27069433  0.72703510     0.06300
C812        C  0.66582172  0.29432105  0.70319262    -0.13400
Br813      Br  0.69668040  0.31986063  0.60041704    -0.05500
Br814      Br  0.56626912  0.42461985  0.68614252     0.00100
Br815      Br  0.79611688  0.31610314  0.70350063     0.00600
Br816      Br  0.61351712  0.28309537  0.69267548    -0.03800
Br817      Br  0.64372920  0.37648063  0.55043476     0.00700
Br818      Br  0.63158299  0.38156425  0.73548042    -0.03100
Br819      Br  0.74047449  0.38214567  0.67602420    -0.04000
Br820      Br  0.65474752  0.24306129  0.76098432     0.00000
C821        C  0.39252476  0.61639812  0.59843940     0.01400
C822        C  0.35995490  0.60090146  0.61486560     0.04200
C823        C  0.33621989  0.62416413  0.63671091    -0.11800
C824        C  0.34435945  0.66336343  0.64142217     0.23500
C825        C  0.37597639  0.67919095  0.62351175    -0.12400
C826        C  0.40077679  0.65558060  0.60335214     0.04900
C827        C  0.32130228  0.68756185  0.66695327     0.27300
C828        C  0.28484830  0.69834394  0.65754420    -0.13100
C829        C  0.26153223  0.71612889  0.68443608     0.05400
C830        C  0.27713779  0.73297988  0.71812473    -0.09100
C831        C  0.31758648  0.72925938  0.72112976     0.06300
C832        C  0.33659935  0.70118098  0.70029621    -0.13400
Br833      Br  0.38527175  0.73347456  0.62658971    -0.05500
Br834      Br  0.34747838  0.54775293  0.60706570     0.00100
Br835      Br  0.20866213  0.70953815  0.67473948     0.00600
Br836      Br  0.38492042  0.68287467  0.71670018    -0.03800
Br837      Br  0.44782962  0.67669803  0.58622252     0.00700
Br838      Br  0.29290590  0.60188324  0.66046790    -0.03100
Br839      Br  0.26682714  0.68769431  0.60781813    -0.04000
Br840      Br  0.35272190  0.76710259  0.74002477     0.00000
C841        C  0.39219147  0.38541553  0.40632822     0.01400
C842        C  0.35287509  0.38537210  0.41018548     0.04200
C843        C  0.33063111  0.36404307  0.38519582    -0.11800
C844        C  0.34767146  0.34382261  0.35552733     0.23500
C845        C  0.38704170  0.34452786  0.35134695    -0.12400
C846        C  0.40928948  0.36490108  0.37694984     0.04900
C847        C  0.32414912  0.32150441  0.32901885     0.27300
C848        C  0.31860835  0.28257293  0.33430553    -0.13100
C849        C  0.29871108  0.26053858  0.30781678     0.05400
C850        C  0.27857419  0.27811824  0.27746984    -0.09100
C851        C  0.28019431  0.31959928  0.27722064     0.06300
C852        C  0.30626117  0.33961925  0.29969169    -0.13400
Br853      Br  0.41062113  0.31826134  0.31021296    -0.05500
Br854      Br  0.32955420  0.41618988  0.44843537     0.00100
Br855      Br  0.30492444  0.20623312  0.31334864     0.00600
Br856      Br  0.31679882  0.39320966  0.29177460    -0.03800
Br857      Br  0.46334143  0.36472074  0.37171559     0.00700
Br858      Br  0.27681212  0.36250809  0.39138592    -0.03100
Br859      Br  0.33997554  0.25951102  0.37807582    -0.04000
Br860      Br  0.24313075  0.35370380  0.25663747     0.00000
loop_ 
_geom_bond_atom_site_label_1 
_geom_bond_atom_site_label_2 
_geom_bond_distance 
_geom_bond_site_symmetry_2 
_ccdc_geom_bond_type 
C1           N19   1.345       .  A
C1           C38   1.464       .  S
C1          C841   1.469       .  S
N2           N19   1.321       .  A
N2           N24   1.320       .  A
N2          Co39   2.065       .  S
C3           N28   1.345       .  A
C3           C41   1.468       .  S
C3           H48   1.074       .  S
H4           C45   1.080       .  S
C5           N29   1.339       .  A
C5            C9   1.459       .  S
C5           H34   1.082       .  S
Co6          N24   2.099       .  S
Co6          N14   2.088       .  S
Co6          N46   2.098       .  S
Co6          N22   2.096       .  S
Co6         Cl50   2.466       .  S
N7           C45   1.336       .  A
N7           N14   1.319       .  A
N7           Co8   2.070       .  S
Co8          N11   2.088       .  S
Co8          N28   2.100       .  S
Co8          N15   2.069       .  S
Co8         Cl50   2.438       .  S
C9           N47   1.351       .  A
C9          C821   1.479       .  S
N10          N17   1.319       .  A
N10          N40   1.325       .  A
N10         Co43   2.084       .  S
N11          N29   1.319       .  A
N11          N47   1.325       .  A
N12          C41   1.355       .  A
N12          N22   1.327       .  A
H13          C38   1.082       .  S
N14          N35   1.324       .  A
N15          N33   1.320       .  A
N15          N20   1.321       .  A
C16          N20   1.346       .  A
C16          C44   1.464       .  S
C16         C710   1.477       .  S
N17          C32   1.343       .  A
N17         Co39   2.092       .  S
C18          N46   1.345       .  A
C18          C21   1.469       .  S
C18          H52   1.083       .  S
C21          N42   1.349       .  A
C21         C741   1.493       .  S
N22          N28   1.320       .  A
N23          C49   1.337       .  A
N23          N25   1.317       .  A
N23         Co39   2.076       .  S
N24          C38   1.344       .  A
N25          N53   1.321       .  A
N25         Co43   2.078       .  S
H26          C49   1.081       .  S
H27          C44   1.080       .  S
N29         Co43   2.075       .  S
N30          N42   1.323       .  A
N30          N46   1.320       .  A
N30         Co39   2.083       .  S
C31          N35   1.353       .  A
C31          C45   1.457       .  S
C31         C730   1.480       .  S
C32          C51   1.460       .  S
C32          H36   1.080       .  S
N33          C44   1.342       .  A
N33         Co43   2.092       .  S
C37          N53   1.352       .  A
C37          C49   1.465       .  S
C37         C781   1.491       .  S
Co39        Cl50   2.436       .  S
N40          C51   1.351       .  A
C41         C801   1.500       .  S
Co43        Cl50   2.460       .  S
C51         C770   1.481       .  S
C54          N72   1.349       .  A
C54          C91   1.464       .  S
C54         C641   1.481       .  S
N55          N72   1.326       .  A
N55          N77   1.322       .  A
N55         Co92   2.088   1_556  S
C56          N81   1.341       .  A
C56          C94   1.459       .  S
C56         H101   1.073       .  S
H57          C98   1.080       .  S
C58          N82   1.344       .  A
C58          C62   1.463       .  S
C58          H87   1.082       .  S
Co59         N77   2.100       .  S
Co59         N67   2.088   1_455  S
Co59         N99   2.087   1_556  S
Co59         N75   2.094   1_456  S
Co59       Cl103   2.463       .  S
N60          C98   1.340       .  A
N60          N67   1.319       .  A
N60         Co61   2.075       .  S
Co61         N64   2.094       .  S
Co61         N81   2.085   1_556  S
Co61         N68   2.072   1_556  S
Co61       Cl103   2.441   1_655  S
C62         N100   1.351       .  A
C62         C621   1.480       .  S
N63          N70   1.320       .  A
N63          N93   1.324       .  A
N63         Co96   2.086       .  S
N64          N82   1.322       .  A
N64         N100   1.325       .  A
N65          C94   1.351       .  A
N65          N75   1.326       .  A
H66          C91   1.079       .  S
N67          N88   1.325       .  A
N68          N86   1.319       .  A
N68          N73   1.323       .  A
C69          N73   1.346       .  A
C69          C97   1.469       .  S
C69         C581   1.487       .  S
N70          C85   1.341       .  A
N70         Co92   2.081   1_556  S
C71          N99   1.343       .  A
C71          C74   1.465       .  S
C71         H105   1.083       .  S
C74          N95   1.349       .  A
C74         C541   1.483       .  S
N75          N81   1.321       .  A
N76         C102   1.335       .  A
N76          N78   1.322       .  A
N76         Co92   2.074       .  S
N77          C91   1.343       .  A
N78         N106   1.327       .  A
N78         Co96   2.103   1_554  S
H79         C102   1.082       .  S
H80          C97   1.082       .  S
N82         Co96   2.099   1_655  S
N83          N95   1.324       .  A
N83          N99   1.318       .  A
N83         Co92   2.078       .  S
C84          N88   1.351       .  A
C84          C98   1.457       .  S
C84         C690   1.480       .  S
C85         C104   1.460       .  S
C85          H89   1.082       .  S
N86          C97   1.346       .  A
N86         Co96   2.100   1_654  S
C90         N106   1.356       .  A
C90         C102   1.454       .  S
C90         C570   1.480       .  S
Co92       Cl103   2.438   1_554  S
N93         C104   1.351       .  A
C94         C661   1.476       .  S
Co96       Cl103   2.469       .  S
C104        C610   1.483       .  S
C107        C510   1.607       .  S
C107        C530   1.612       .  S
C107        C681   1.608       .  S
C107        C810   1.615       .  S
C108        N126   1.354       .  A
C108        C145   1.470       .  S
C108        C450   1.502       .  S
N109        N126   1.325       .  A
N109        N131   1.318       .  A
N109       Co146   2.092   1_556  S
C110        N135   1.340       .  A
C110        C148   1.464       .  S
C110        H155   1.080       .  S
H111        C152   1.081       .  S
C112        N136   1.347       .  A
C112        C116   1.474       .  S
C112        H141   1.079       .  S
Co113       N131   2.089       .  S
Co113       N121   2.087       .  S
Co113       N153   2.097   1_556  S
Co113       N129   2.083   1_556  S
Co113      Cl157   2.458   1_546  S
N114        C152   1.339       .  A
N114        N121   1.319       .  A
N114       Co115   2.082   1_546  S
Co115       N118   2.086   1_554  S
Co115       N135   2.082   1_565  S
Co115       N122   2.072       .  S
Co115      Cl157   2.437       .  S
C116        N154   1.350       .  A
C116        C430   1.500       .  S
N117        N124   1.321       .  A
N117        N147   1.324       .  A
N117       Co150   2.085   1_556  S
N118        N136   1.319       .  A
N118        N154   1.323       .  A
N119        C148   1.352       .  A
N119        N129   1.324       .  A
H120        C145   1.078       .  S
N121        N142   1.324       .  A
N122        N140   1.317       .  A
N122        N127   1.321       .  A
C123        N127   1.348       .  A
C123        C151   1.463       .  S
C123        C461   1.479       .  S
N124        C139   1.337       .  A
N124       Co146   2.075   1_566  S
C125        N153   1.344       .  A
C125        C128   1.463       .  S
C125        H159   1.083       .  S
C128        N149   1.345       .  A
C128        C390   1.473       .  S
N129        N135   1.318       .  A
N130        C156   1.343       .  A
N130        N132   1.320       .  A
N130       Co146   2.090   1_565  S
N131        C145   1.341       .  A
N132        N160   1.324       .  A
N132       Co150   2.084       .  S
H133        C156   1.081       .  S
H134        C151   1.080       .  S
N136       Co150   2.100   1_556  S
N137        N149   1.321       .  A
N137        N153   1.321       .  A
N137       Co146   2.067       .  S
C138        N142   1.353       .  A
C138        C152   1.462       .  S
C138        C521   1.488       .  S
C139        C158   1.455       .  S
C139        H143   1.082       .  S
N140        C151   1.341       .  A
N140       Co150   2.081       .  S
C144        N160   1.349       .  A
C144        C156   1.462       .  S
C144        C401   1.474       .  S
Co146      Cl157   2.447   1_545  S
N147        C158   1.350       .  A
C148        C361   1.489       .  S
Co150      Cl157   2.457       .  S
C158        C490   1.471       .  S
C161        C350   1.607       .  S
C161        C481   1.605       .  S
C161        C601   1.611       .  S
C161        C830   1.605       .  S
C162        N180   1.352       .  A
C162        C199   1.469       .  S
C162        C330   1.499       .  S
N163        N180   1.324       .  A
N163        N185   1.318       .  A
N163       Co200   2.081   1_645  S
C164        N189   1.338       .  A
C164        C202   1.465       .  S
C164        H209   1.080       .  S
H165        C206   1.081       .  S
C166        N190   1.338       .  A
C166        C170   1.458       .  S
C166        H195   1.082       .  S
Co167       N185   2.091   1_565  S
Co167       N175   2.091   1_565  S
Co167       N207   2.090       .  S
Co167       N183   2.087       .  S
Co167      Cl211   2.436   1_655  S
N168        C206   1.339       .  A
N168        N175   1.320       .  A
N168       Co169   2.078   1_655  S
Co169       N172   2.083       .  S
Co169       N189   2.076   1_445  S
Co169       N176   2.085   1_545  S
Co169      Cl211   2.459   1_545  S
C170        N208   1.351       .  A
C170        C221   1.477       .  S
N171        N178   1.322       .  A
N171        N201   1.322       .  A
N171       Co204   2.076   1_545  S
N172        N190   1.318       .  A
N172        N208   1.324       .  A
N173        C202   1.352       .  A
N173        N183   1.324       .  A
H174        C199   1.080       .  S
N175        N196   1.325       .  A
N176        N194   1.320       .  A
N176        N181   1.325       .  A
C177        N181   1.349       .  A
C177        C205   1.462       .  S
C177        C341   1.481       .  S
N178        C193   1.346       .  A
N178       Co200   2.107   1_545  S
C179        N207   1.342       .  A
C179        C182   1.460       .  S
C179        H213   1.082       .  S
C182        N203   1.354       .  A
C182        C301   1.482       .  S
N183        N189   1.317       .  A
N184        C210   1.336       .  A
N184        N186   1.319       .  A
N184       Co200   2.068       .  S
N185        C199   1.340       .  A
N186        N214   1.322       .  A
N186       Co204   2.075       .  S
H187        C210   1.082       .  S
H188        C205   1.081       .  S
N190       Co204   2.074   1_545  S
N191        N203   1.327       .  A
N191        N207   1.319       .  A
N191       Co200   2.096   1_655  S
C192        N196   1.351       .  A
C192        C206   1.458       .  S
C192        C501   1.477       .  S
C193        C212   1.468       .  S
C193        H197   1.081       .  S
N194        C205   1.342       .  A
N194       Co204   2.090       .  S
C198        N214   1.348       .  A
C198        C210   1.454       .  S
C198        C281   1.464       .  S
Co200      Cl211   2.462       .  S
N201        C212   1.345       .  A
C202        C270   1.495       .  S
Co204      Cl211   2.439       .  S
C212        C241   1.484       .  S
C215        C310   1.623       .  S
C215        C470   1.604       .  S
C215        C590   1.620       .  S
C215        C790   1.606       .  S
C216        C250   1.604       .  S
C216        C381   1.608       .  S
C216        C550   1.611       .  S
C216        C850   1.603       .  S
C217        C321   1.620       .  S
C217        C370   1.612       .  S
C217        C670   1.618       .  S
C217        C750   1.622       .  S
C218        C290   1.599       .  S
C218        C410   1.614       .  S
C218        C561   1.602       .  S
C218        C761   1.608       .  S
C219        C230   1.613       .  S
C219        C441   1.617       .  S
C219        C650   1.617       .  S
C219        C721   1.603       .  S
C220        C261   1.611       .  S
C220        C421   1.613       .  S
C220        C630   1.618       .  S
C220        C701   1.611       .  S
C221        C222   1.409       .  A
C221        C226   1.416       .  A
C222        C223   1.406       .  A
C222       Br234   1.928       .  S
C223        C224   1.408       .  A
C223       Br238   1.929       .  S
C224        C227   1.484       .  S
C224        C225   1.408       .  A
C225        C226   1.406       .  A
C225       Br233   1.933       .  S
C226       Br237   1.932       .  S
C227        C228   1.391       .  A
C227        C232   1.397       .  A
C228        C229   1.410       .  A
C228       Br239   1.946       .  S
C229        C230   1.463       .  A
C229       Br235   1.948       .  S
C230        C231   1.452       .  A
C231        C232   1.416       .  A
C231       Br240   1.928       .  S
C232       Br236   1.941       .  S
C241        C242   1.414       .  A
C241        C246   1.409       .  A
C242        C243   1.407       .  A
C242       Br254   1.932       .  S
C243        C244   1.411       .  A
C243       Br258   1.934       .  S
C244        C247   1.491       .  S
C244        C245   1.412       .  A
C245        C246   1.408       .  A
C245       Br253   1.929       .  S
C246       Br257   1.925       .  S
C247        C248   1.400       .  A
C247        C252   1.398       .  A
C248        C249   1.413       .  A
C248       Br259   1.936       .  S
C249        C250   1.454       .  A
C249       Br255   1.932       .  S
C250        C251   1.451       .  A
C251        C252   1.405       .  A
C251       Br260   1.941       .  S
C252       Br256   1.936       .  S
C261        C262   1.463       .  A
C261        C266   1.453       .  A
C262        C263   1.419       .  A
C262       Br274   1.945       .  S
C263        C264   1.397       .  A
C263       Br278   1.948       .  S
C264        C267   1.493       .  S
C264        C265   1.395       .  A
C265        C266   1.414       .  A
C265       Br273   1.944       .  S
C266       Br277   1.930       .  S
C267        C268   1.409       .  A
C267        C272   1.408       .  A
C268        C269   1.409       .  A
C268       Br279   1.933       .  S
C269        C270   1.422       .  A
C269       Br275   1.935       .  S
C270        C271   1.419       .  A
C271        C272   1.407       .  A
C271       Br280   1.933       .  S
C272       Br276   1.933       .  S
C281        C282   1.405       .  A
C281        C286   1.411       .  A
C282        C283   1.402       .  A
C282       Br294   1.926       .  S
C283        C284   1.408       .  A
C283       Br298   1.928       .  S
C284        C287   1.476       .  S
C284        C285   1.408       .  A
C285        C286   1.402       .  A
C285       Br293   1.933       .  S
C286       Br297   1.932       .  S
C287        C288   1.394       .  A
C287        C292   1.392       .  A
C288        C289   1.410       .  A
C288       Br299   1.941       .  S
C289        C290   1.451       .  A
C289       Br295   1.930       .  S
C290        C291   1.459       .  A
C291        C292   1.409       .  A
C291       Br300   1.937       .  S
C292       Br296   1.949       .  S
C301        C302   1.409       .  A
C301        C306   1.410       .  A
C302        C303   1.408       .  A
C302       Br314   1.932       .  S
C303        C304   1.411       .  A
C303       Br318   1.924       .  S
C304        C307   1.497       .  S
C304        C305   1.412       .  A
C305        C306   1.413       .  A
C305       Br313   1.929       .  S
C306       Br317   1.928       .  S
C307        C308   1.393       .  A
C307        C312   1.395       .  A
C308        C309   1.417       .  A
C308       Br319   1.940       .  S
C309        C310   1.458       .  A
C309       Br315   1.926       .  S
C310        C311   1.459       .  A
C311        C312   1.420       .  A
C311       Br320   1.924       .  S
C312       Br316   1.945       .  S
C321        C322   1.466       .  A
C321        C326   1.454       .  A
C322        C323   1.418       .  A
C322       Br334   1.944       .  S
C323        C324   1.394       .  A
C323       Br338   1.952       .  S
C324        C327   1.494       .  S
C324        C325   1.397       .  A
C325        C326   1.418       .  A
C325       Br333   1.941       .  S
C326       Br337   1.933       .  S
C327        C328   1.410       .  A
C327        C332   1.407       .  A
C328        C329   1.407       .  A
C328       Br339   1.932       .  S
C329        C330   1.419       .  A
C329       Br335   1.934       .  S
C330        C331   1.421       .  A
C331        C332   1.410       .  A
C331       Br340   1.925       .  S
C332       Br336   1.934       .  S
C341        C342   1.409       .  A
C341        C346   1.413       .  A
C342        C343   1.408       .  A
C342       Br354   1.926       .  S
C343        C344   1.409       .  A
C343       Br358   1.930       .  S
C344        C347   1.489       .  S
C344        C345   1.409       .  A
C345        C346   1.409       .  A
C345       Br353   1.928       .  S
C346       Br357   1.931       .  S
C347        C348   1.395       .  A
C347        C352   1.395       .  A
C348        C349   1.416       .  A
C348       Br359   1.944       .  S
C349        C350   1.459       .  A
C349       Br355   1.940       .  S
C350        C351   1.454       .  A
C351        C352   1.414       .  A
C351       Br360   1.933       .  S
C352       Br356   1.940       .  S
C361        C362   1.415       .  A
C361        C366   1.418       .  A
C362        C363   1.409       .  A
C362       Br374   1.933       .  S
C363        C364   1.410       .  A
C363       Br378   1.932       .  S
C364        C367   1.495       .  S
C364        C365   1.412       .  A
C365        C366   1.409       .  A
C365       Br373   1.933       .  S
C366       Br377   1.934       .  S
C367        C368   1.397       .  A
C367        C372   1.398       .  A
C368        C369   1.418       .  A
C368       Br379   1.948       .  S
C369        C370   1.460       .  A
C369       Br375   1.941       .  S
C370        C371   1.452       .  A
C371        C372   1.417       .  A
C371       Br380   1.928       .  S
C372       Br376   1.942       .  S
C381        C382   1.452       .  A
C381        C386   1.459       .  A
C382        C383   1.416       .  A
C382       Br394   1.934       .  S
C383        C384   1.397       .  A
C383       Br398   1.939       .  S
C384        C387   1.487       .  S
C384        C385   1.394       .  A
C385        C386   1.411       .  A
C385       Br393   1.947       .  S
C386       Br397   1.943       .  S
C387        C388   1.410       .  A
C387        C392   1.411       .  A
C388        C389   1.406       .  A
C388       Br399   1.929       .  S
C389        C390   1.408       .  A
C389       Br395   1.929       .  S
C390        C391   1.410       .  A
C391        C392   1.407       .  A
C391       Br400   1.930       .  S
C392       Br396   1.932       .  S
C401        C402   1.408       .  A
C401        C406   1.408       .  A
C402        C403   1.405       .  A
C402       Br414   1.930       .  S
C403        C404   1.410       .  A
C403       Br418   1.924       .  S
C404        C407   1.491       .  S
C404        C405   1.412       .  A
C405        C406   1.410       .  A
C405       Br413   1.930       .  S
C406       Br417   1.927       .  S
C407        C408   1.395       .  A
C407        C412   1.396       .  A
C408        C409   1.416       .  A
C408       Br419   1.941       .  S
C409        C410   1.457       .  A
C409       Br415   1.930       .  S
C410        C411   1.457       .  A
C411        C412   1.413       .  A
C411       Br420   1.943       .  S
C412       Br416   1.940       .  S
C421        C422   1.455       .  A
C421        C426   1.455       .  A
C422        C423   1.413       .  A
C422       Br434   1.933       .  S
C423        C424   1.396       .  A
C423       Br438   1.939       .  S
C424        C427   1.496       .  S
C424        C425   1.397       .  A
C425        C426   1.417       .  A
C425       Br433   1.939       .  S
C426       Br437   1.925       .  S
C427        C428   1.410       .  A
C427        C432   1.407       .  A
C428        C429   1.413       .  A
C428       Br439   1.933       .  S
C429        C430   1.420       .  A
C429       Br435   1.930       .  S
C430        C431   1.420       .  A
C431        C432   1.410       .  A
C431       Br440   1.932       .  S
C432       Br436   1.931       .  S
C441        C442   1.460       .  A
C441        C446   1.453       .  A
C442        C443   1.416       .  A
C442       Br454   1.948       .  S
C443        C444   1.398       .  A
C443       Br458   1.946       .  S
C444        C447   1.497       .  S
C444        C445   1.397       .  A
C445        C446   1.419       .  A
C445       Br453   1.943       .  S
C446       Br457   1.927       .  S
C447        C448   1.407       .  A
C447        C452   1.409       .  A
C448        C449   1.410       .  A
C448       Br459   1.933       .  S
C449        C450   1.423       .  A
C449       Br455   1.931       .  S
C450        C451   1.421       .  A
C451        C452   1.411       .  A
C451       Br460   1.933       .  S
C452       Br456   1.933       .  S
C461        C462   1.413       .  A
C461        C466   1.417       .  A
C462        C463   1.408       .  A
C462       Br474   1.932       .  S
C463        C464   1.408       .  A
C463       Br478   1.927       .  S
C464        C467   1.482       .  S
C464        C465   1.406       .  A
C465        C466   1.403       .  A
C465       Br473   1.934       .  S
C466       Br477   1.935       .  S
C467        C468   1.393       .  A
C467        C472   1.395       .  A
C468        C469   1.409       .  A
C468       Br479   1.939       .  S
C469        C470   1.454       .  A
C469       Br475   1.940       .  S
C470        C471   1.454       .  A
C471        C472   1.414       .  A
C471       Br480   1.925       .  S
C472       Br476   1.943       .  S
C481        C482   1.459       .  A
C481        C486   1.455       .  A
C482        C483   1.409       .  A
C482       Br494   1.949       .  S
C483        C484   1.393       .  A
C483       Br498   1.943       .  S
C484        C487   1.481       .  S
C484        C485   1.395       .  A
C485        C486   1.413       .  A
C485       Br493   1.940       .  S
C486       Br497   1.936       .  S
C487        C488   1.409       .  A
C487        C492   1.408       .  A
C488        C489   1.405       .  A
C488       Br499   1.926       .  S
C489        C490   1.408       .  A
C489       Br495   1.931       .  S
C490        C491   1.412       .  A
C491        C492   1.404       .  A
C491       Br500   1.930       .  S
C492       Br496   1.933       .  S
C501        C502   1.408       .  A
C501        C506   1.412       .  A
C502        C503   1.408       .  A
C502       Br514   1.928       .  S
C503        C504   1.411       .  A
C503       Br518   1.928       .  S
C504        C507   1.490       .  S
C504        C505   1.411       .  A
C505        C506   1.406       .  A
C505       Br513   1.932       .  S
C506       Br517   1.932       .  S
C507        C508   1.399       .  A
C507        C512   1.396       .  A
C508        C509   1.416       .  A
C508       Br519   1.942       .  S
C509        C510   1.453       .  A
C509       Br515   1.931       .  S
C510        C511   1.456       .  A
C511        C512   1.412       .  A
C511       Br520   1.941       .  S
C512       Br516   1.943       .  S
C521        C522   1.418       .  A
C521        C526   1.414       .  A
C522        C523   1.409       .  A
C522       Br534   1.932       .  S
C523        C524   1.411       .  A
C523       Br538   1.934       .  S
C524        C527   1.495       .  S
C524        C525   1.410       .  A
C525        C526   1.409       .  A
C525       Br533   1.928       .  S
C526       Br537   1.933       .  S
C527        C528   1.397       .  A
C527        C532   1.399       .  A
C528        C529   1.408       .  A
C528       Br539   1.939       .  S
C529        C530   1.455       .  A
C529       Br535   1.943       .  S
C530        C531   1.454       .  A
C531        C532   1.418       .  A
C531       Br540   1.928       .  S
C532       Br536   1.938       .  S
C541        C542   1.414       .  A
C541        C546   1.411       .  A
C542        C543   1.408       .  A
C542       Br554   1.926       .  S
C543        C544   1.409       .  A
C543       Br558   1.932       .  S
C544        C547   1.490       .  S
C544        C545   1.410       .  A
C545        C546   1.409       .  A
C545       Br553   1.927       .  S
C546       Br557   1.931       .  S
C547        C548   1.395       .  A
C547        C552   1.395       .  A
C548        C549   1.414       .  A
C548       Br559   1.947       .  S
C549        C550   1.460       .  A
C549       Br555   1.940       .  S
C550        C551   1.455       .  A
C551        C552   1.417       .  A
C551       Br560   1.928       .  S
C552       Br556   1.940       .  S
C561        C562   1.453       .  A
C561        C566   1.449       .  A
C562        C563   1.412       .  A
C562       Br574   1.926       .  S
C563        C564   1.397       .  A
C563       Br578   1.937       .  S
C564        C567   1.490       .  S
C564        C565   1.399       .  A
C565        C566   1.408       .  A
C565       Br573   1.936       .  S
C566       Br577   1.931       .  S
C567        C568   1.409       .  A
C567        C572   1.414       .  A
C568        C569   1.406       .  A
C568       Br579   1.934       .  S
C569        C570   1.415       .  A
C569       Br575   1.931       .  S
C570        C571   1.406       .  A
C571        C572   1.407       .  A
C571       Br580   1.925       .  S
C572       Br576   1.927       .  S
C581        C582   1.409       .  A
C581        C586   1.417       .  A
C582        C583   1.407       .  A
C582       Br594   1.925       .  S
C583        C584   1.410       .  A
C583       Br598   1.924       .  S
C584        C587   1.495       .  S
C584        C585   1.410       .  A
C585        C586   1.411       .  A
C585       Br593   1.932       .  S
C586       Br597   1.930       .  S
C587        C588   1.394       .  A
C587        C592   1.399       .  A
C588        C589   1.414       .  A
C588       Br599   1.942       .  S
C589        C590   1.460       .  A
C589       Br595   1.945       .  S
C590        C591   1.454       .  A
C591        C592   1.420       .  A
C591       Br600   1.930       .  S
C592       Br596   1.940       .  S
C601        C602   1.460       .  A
C601        C606   1.454       .  A
C602        C603   1.417       .  A
C602       Br614   1.934       .  S
C603        C604   1.394       .  A
C603       Br618   1.944       .  S
C604        C607   1.489       .  S
C604        C605   1.393       .  A
C605        C606   1.413       .  A
C605       Br613   1.941       .  S
C606       Br617   1.926       .  S
C607        C608   1.408       .  A
C607        C612   1.408       .  A
C608        C609   1.407       .  A
C608       Br619   1.926       .  S
C609        C610   1.411       .  A
C609       Br615   1.932       .  S
C610        C611   1.416       .  A
C611        C612   1.409       .  A
C611       Br620   1.929       .  S
C612       Br616   1.932       .  S
C621        C622   1.408       .  A
C621        C626   1.408       .  A
C622        C623   1.407       .  A
C622       Br634   1.929       .  S
C623        C624   1.412       .  A
C623       Br638   1.924       .  S
C624        C627   1.498       .  S
C624        C625   1.413       .  A
C625        C626   1.412       .  A
C625       Br633   1.929       .  S
C626       Br637   1.927       .  S
C627        C628   1.397       .  A
C627        C632   1.396       .  A
C628        C629   1.417       .  A
C628       Br639   1.940       .  S
C629        C630   1.459       .  A
C629       Br635   1.939       .  S
C630        C631   1.455       .  A
C631        C632   1.417       .  A
C631       Br640   1.928       .  S
C632       Br636   1.940       .  S
C641        C642   1.408       .  A
C641        C646   1.409       .  A
C642        C643   1.407       .  A
C642       Br654   1.923       .  S
C643        C644   1.410       .  A
C643       Br658   1.928       .  S
C644        C647   1.494       .  S
C644        C645   1.412       .  A
C645        C646   1.412       .  A
C645       Br653   1.928       .  S
C646       Br657   1.928       .  S
C647        C648   1.392       .  A
C647        C652   1.397       .  A
C648        C649   1.413       .  A
C648       Br659   1.940       .  S
C649        C650   1.457       .  A
C649       Br655   1.930       .  S
C650        C651   1.461       .  A
C651        C652   1.421       .  A
C651       Br660   1.933       .  S
C652       Br656   1.945       .  S
C661        C662   1.409       .  A
C661        C666   1.409       .  A
C662        C663   1.411       .  A
C662       Br674   1.929       .  S
C663        C664   1.412       .  A
C663       Br678   1.928       .  S
C664        C667   1.494       .  S
C664        C665   1.411       .  A
C665        C666   1.406       .  A
C665       Br673   1.924       .  S
C666       Br677   1.933       .  S
C667        C668   1.392       .  A
C667        C672   1.396       .  A
C668        C669   1.414       .  A
C668       Br679   1.943       .  S
C669        C670   1.455       .  A
C669       Br675   1.921       .  S
C670        C671   1.462       .  A
C671        C672   1.421       .  A
C671       Br680   1.935       .  S
C672       Br676   1.943       .  S
C681        C682   1.459       .  A
C681        C686   1.454       .  A
C682        C683   1.412       .  A
C682       Br694   1.943       .  S
C683        C684   1.394       .  A
C683       Br698   1.943       .  S
C684        C687   1.488       .  S
C684        C685   1.396       .  A
C685        C686   1.415       .  A
C685       Br693   1.939       .  S
C686       Br697   1.934       .  S
C687        C688   1.409       .  A
C687        C692   1.410       .  A
C688        C689   1.409       .  A
C688       Br699   1.929       .  S
C689        C690   1.414       .  A
C689       Br695   1.932       .  S
C690        C691   1.410       .  A
C691        C692   1.407       .  A
C691       Br700   1.931       .  S
C692       Br696   1.931       .  S
C701        C702   1.459       .  A
C701        C706   1.454       .  A
C702        C703   1.410       .  A
C702       Br714   1.946       .  S
C703        C704   1.393       .  A
C703       Br718   1.942       .  S
C704        C707   1.486       .  S
C704        C705   1.396       .  A
C705        C706   1.415       .  A
C705       Br713   1.938       .  S
C706       Br717   1.931       .  S
C707        C708   1.409       .  A
C707        C712   1.409       .  A
C708        C709   1.407       .  A
C708       Br719   1.932       .  S
C709        C710   1.413       .  A
C709       Br715   1.930       .  S
C710        C711   1.411       .  A
C711        C712   1.406       .  A
C711       Br720   1.933       .  S
C712       Br716   1.926       .  S
C721        C722   1.457       .  A
C721        C726   1.456       .  A
C722        C723   1.408       .  A
C722       Br734   1.933       .  S
C723        C724   1.392       .  A
C723       Br738   1.939       .  S
C724        C727   1.484       .  S
C724        C725   1.399       .  A
C725        C726   1.412       .  A
C725       Br733   1.943       .  S
C726       Br737   1.939       .  S
C727        C728   1.410       .  A
C727        C732   1.406       .  A
C728        C729   1.406       .  A
C728       Br739   1.929       .  S
C729        C730   1.412       .  A
C729       Br735   1.931       .  S
C730        C731   1.418       .  A
C731        C732   1.404       .  A
C731       Br740   1.932       .  S
C732       Br736   1.934       .  S
C741        C742   1.417       .  A
C741        C746   1.418       .  A
C742        C743   1.410       .  A
C742       Br754   1.933       .  S
C743        C744   1.408       .  A
C743       Br758   1.927       .  S
C744        C747   1.495       .  S
C744        C745   1.409       .  A
C745        C746   1.412       .  A
C745       Br753   1.932       .  S
C746       Br757   1.930       .  S
C747        C748   1.396       .  A
C747        C752   1.393       .  A
C748        C749   1.418       .  A
C748       Br759   1.941       .  S
C749        C750   1.457       .  A
C749       Br755   1.925       .  S
C750        C751   1.459       .  A
C751        C752   1.414       .  A
C751       Br760   1.936       .  S
C752       Br756   1.938       .  S
C761        C762   1.453       .  A
C761        C766   1.459       .  A
C762        C763   1.417       .  A
C762       Br774   1.934       .  S
C763        C764   1.397       .  A
C763       Br778   1.937       .  S
C764        C767   1.492       .  S
C764        C765   1.395       .  A
C765        C766   1.412       .  A
C765       Br773   1.943       .  S
C766       Br777   1.945       .  S
C767        C768   1.412       .  A
C767        C772   1.409       .  A
C768        C769   1.410       .  A
C768       Br779   1.930       .  S
C769        C770   1.409       .  A
C769       Br775   1.929       .  S
C770        C771   1.412       .  A
C771        C772   1.409       .  A
C771       Br780   1.931       .  S
C772       Br776   1.927       .  S
C781        C782   1.419       .  A
C781        C786   1.423       .  A
C782        C783   1.406       .  A
C782       Br794   1.934       .  S
C783        C784   1.406       .  A
C783       Br798   1.933       .  S
C784        C787   1.486       .  S
C784        C785   1.407       .  A
C785        C786   1.407       .  A
C785       Br793   1.933       .  S
C786       Br797   1.933       .  S
C787        C788   1.395       .  A
C787        C792   1.394       .  A
C788        C789   1.416       .  A
C788       Br799   1.951       .  S
C789        C790   1.464       .  A
C789       Br795   1.946       .  S
C790        C791   1.453       .  A
C791        C792   1.412       .  A
C791       Br800   1.935       .  S
C792       Br796   1.942       .  S
C801        C802   1.420       .  A
C801        C806   1.416       .  A
C802        C803   1.414       .  A
C802       Br814   1.930       .  S
C803        C804   1.410       .  A
C803       Br818   1.932       .  S
C804        C807   1.504       .  S
C804        C805   1.412       .  A
C805        C806   1.412       .  A
C805       Br813   1.927       .  S
C806       Br817   1.933       .  S
C807        C808   1.397       .  A
C807        C812   1.400       .  A
C808        C809   1.417       .  A
C808       Br819   1.938       .  S
C809        C810   1.454       .  A
C809       Br815   1.927       .  S
C810        C811   1.456       .  A
C811        C812   1.419       .  A
C811       Br820   1.936       .  S
C812       Br816   1.940       .  S
C821        C822   1.410       .  A
C821        C826   1.413       .  A
C822        C823   1.408       .  A
C822       Br834   1.932       .  S
C823        C824   1.412       .  A
C823       Br838   1.928       .  S
C824        C827   1.489       .  S
C824        C825   1.410       .  A
C825        C826   1.406       .  A
C825       Br833   1.933       .  S
C826       Br837   1.931       .  S
C827        C828   1.398       .  A
C827        C832   1.398       .  A
C828        C829   1.413       .  A
C828       Br839   1.935       .  S
C829        C830   1.453       .  A
C829       Br835   1.929       .  S
C830        C831   1.452       .  A
C831        C832   1.405       .  A
C831       Br840   1.939       .  S
C832       Br836   1.936       .  S
C841        C842   1.407       .  A
C841        C846   1.409       .  A
C842        C843   1.407       .  A
C842       Br854   1.927       .  S
C843        C844   1.411       .  A
C843       Br858   1.929       .  S
C844        C847   1.486       .  S
C844        C845   1.410       .  A
C845        C846   1.404       .  A
C845       Br853   1.925       .  S
C846       Br857   1.933       .  S
C847        C848   1.394       .  A
C847        C852   1.396       .  A
C848        C849   1.411       .  A
C848       Br859   1.939       .  S
C849        C850   1.454       .  A
C849       Br855   1.931       .  S
C850        C851   1.456       .  A
C851        C852   1.413       .  A
C851       Br860   1.940       .  S
C852       Br856   1.940       .  S
