geometry optimzed in LAMMPS
_audit_creation_date              2020-11-30 
_audit_creation_method            'lammps2cif' 
_symmetry_space_group_name_H-M    'P1' 
_symmetry_Int_Tables_number       1 
_symmetry_cell_setting            triclinic 
loop_ 
_symmetry_equiv_pos_as_xyz 
  x,y,z 
_cell_length_a                    40.92833802 
_cell_length_b                    40.20518255627321 
_cell_length_c                    40.00929992902505 
_cell_angle_alpha                 91.23943207971296 
_cell_angle_beta                  90.6125949682204 
_cell_angle_gamma                 90.41708700467542 
loop_ 
_atom_site_label 
_atom_site_type_symbol 
_atom_site_fract_x 
_atom_site_fract_y 
_atom_site_fract_z 
_atom_site_charge 
In1        In  0.84986044  0.14780574  0.00773691     1.36900
C2          C  0.85199443  0.11678037  0.06412977     0.78600
O3          O  0.89546863  0.17342050  0.02451887    -0.59800
O4          O  0.85244809  0.20308194  0.02226873    -0.50700
C5          C  0.88122310  0.14011766  0.95196453     0.71300
O6          O  0.88449492  0.12072875  0.97619752    -0.45600
C7          C  0.79673478  0.11774103  0.98295159     0.76000
O8          O  0.87272318  0.11263361  0.04129390    -0.57400
O9          O  0.79681393  0.14890328  0.98955379    -0.47500
O10         O  0.83009161  0.13814387  0.05855638    -0.53900
C11         C  0.88296364  0.20166041  0.02870447     0.86200
O12         O  0.86096499  0.16346876  0.95610598    -0.55800
O13         O  0.82281536  0.10294858  0.98995076    -0.59100
In14       In  0.84681849  0.95053807  0.17822063     1.36900
C15         C  0.84872632  0.00897675  0.15133123     0.78600
O16         O  0.82240780  0.93289457  0.13171467    -0.59800
O17         O  0.79422014  0.93262397  0.17655709    -0.50700
C18         C  0.88042822  0.89576671  0.17497031     0.71300
O19         O  0.88392615  0.91893769  0.15436105    -0.45600
C20         C  0.87506215  0.97268458  0.23384289     0.76000
O21         O  0.86954783  0.98661803  0.14514920    -0.57400
O22         O  0.84508938  0.96392975  0.23346829    -0.47500
O23         O  0.82615697  0.00107674  0.17112049    -0.53900
C24         C  0.79552814  0.92648786  0.14526405     0.86200
O25         O  0.85870973  0.90034282  0.19684865    -0.55800
O26         O  0.88961435  0.96988346  0.20638335    -0.59100
In27       In  0.03137703  0.14130899  0.81708516     1.36900
C28         C  0.97843465  0.13778751  0.85219755     0.78600
O29         O  0.05131865  0.16943784  0.86083686    -0.59800
O30         O  0.04430298  0.19648154  0.81586099    -0.50700
C31         C  0.08784889  0.11181293  0.81877199     0.71300
O32         O  0.06585139  0.10728104  0.84016454    -0.45600
C33         C  0.00620090  0.10722788  0.76538055     0.76000
O34         O  0.00204191  0.11800653  0.85564250    -0.57400
O35         O  0.01318017  0.13802027  0.76308871    -0.47500
O36         O  0.98192526  0.15968241  0.83019560    -0.53900
C37         C  0.05360166  0.19681594  0.84636755     0.86200
O38         O  0.08081836  0.13185208  0.79581074    -0.55800
O39         O  0.01224047  0.09481765  0.79335670    -0.59100
In40       In  0.03951457  0.77400119  0.19196497     1.36900
C41         C  0.09406848  0.78082030  0.15951022     0.78600
O42         O  0.05313994  0.82003208  0.22094598    -0.59800
O43         O  0.05379436  0.77474317  0.24761157    -0.50700
C44         C  0.98325775  0.80299991  0.18395675     0.71300
O45         O  0.00748970  0.80818950  0.16547185    -0.45600
C46         C  0.02010580  0.71792055  0.16036343     0.76000
O47         O  0.07031097  0.80042126  0.15661219    -0.57400
O48         O  0.02616144  0.71850287  0.19167325    -0.47500
O49         O  0.09050095  0.75811044  0.18063528    -0.53900
C50         C  0.05831182  0.80612340  0.24832009     0.86200
O51         O  0.98780279  0.78245968  0.20707766    -0.55800
O52         O  0.02433599  0.74521547  0.14623616    -0.59100
In53       In  0.21796246  0.77452651  0.99858464     1.36900
C54         C  0.18533006  0.77843542  0.05400895     0.78600
O55         O  0.17571511  0.74532570  0.97852962    -0.59800
O56         O  0.22112219  0.71982509  0.98307297    -0.50700
C57         C  0.21728779  0.80837413  0.94367299     0.71300
O58         O  0.19493394  0.81017187  0.96516263    -0.45600
C59         C  0.26867639  0.80680230  0.02541128     0.76000
O60         O  0.18027473  0.79750014  0.02979709    -0.57400
O61         O  0.27081833  0.77625129  0.01667425    -0.47500
O62         O  0.20710210  0.75662360  0.04952894    -0.53900
C63         C  0.19100976  0.71848128  0.97489259     0.86200
O64         O  0.23965120  0.78765941  0.94959643    -0.55800
O65         O  0.24127617  0.81985274  0.02039739    -0.59100
In66       In  0.22955103  0.96798702  0.81765652     1.36900
C67         C  0.19393765  0.02165428  0.82020336     0.78600
O68         O  0.25350113  0.98896239  0.86371619    -0.59800
O69         O  0.28328235  0.98463498  0.82047272    -0.50700
C70         C  0.22513332  0.91238399  0.84993013     0.71300
O71         O  0.20444897  0.93542505  0.85240190    -0.45600
C72         C  0.20215939  0.94252442  0.76188271     0.76000
O73         O  0.19228697  0.99892720  0.84141645    -0.57400
O74         O  0.23196666  0.95195591  0.76239182    -0.47500
O75         O  0.21501094  0.01742634  0.79757335    -0.53900
C76         C  0.28130435  0.99298092  0.85129062     0.86200
O77         O  0.24866161  0.91777831  0.83042590    -0.55800
O78         O  0.18753443  0.94614042  0.78917903    -0.59100
C79         C  0.62380664  0.38437023  0.64427701     0.87500
C80         C  0.60938413  0.41956283  0.65082418    -0.52700
C81         C  0.57788992  0.41930540  0.66277460     0.10500
C82         C  0.56467541  0.38358497  0.66806450     0.21400
C83         C  0.62089164  0.36625614  0.67742082    -0.53400
C84         C  0.58989054  0.36521791  0.68942686     0.10600
C85         C  0.59828632  0.36724360  0.62124065    -0.53000
C86         C  0.56751370  0.36677678  0.63380871     0.11100
H87         H  0.62147830  0.44245001  0.64395169     0.15600
H88         H  0.53970338  0.38148164  0.67815876     0.01400
H89         H  0.64080115  0.35224474  0.68830773     0.16000
H90         H  0.60423054  0.35628942  0.59705788     0.15700
C91         C  0.69172908  0.39700231  0.58078940     0.87500
C92         C  0.66727784  0.38372505  0.55417279    -0.52700
C93         C  0.68038184  0.37815056  0.52345752     0.10500
C94         C  0.71663187  0.38756587  0.52158374     0.21400
C95         C  0.71988040  0.37155978  0.58020923    -0.53400
C96         C  0.73272215  0.36629006  0.54892380     0.10600
C97         C  0.70603995  0.42854324  0.56578013    -0.53000
C98         C  0.71805620  0.42436597  0.53434456     0.11100
H99         H  0.64167025  0.37936790  0.55930901     0.15600
H100        H  0.72730188  0.38304953  0.49652189     0.01400
H101        H  0.72761275  0.35783205  0.60194267     0.16000
H102        H  0.70326456  0.45298530  0.57749899     0.15700
C103        C  0.68067614  0.53326578  0.44258772     0.87500
C104        C  0.69661174  0.51215319  0.47023958    -0.52700
C105        C  0.70788704  0.48180107  0.45880881     0.10500
C106        C  0.70268649  0.47616881  0.42114086     0.21400
C107        C  0.70698005  0.53627675  0.41553112    -0.53400
C108        C  0.71779439  0.50618722  0.40411483     0.10600
C109        C  0.65437048  0.51003001  0.42698402    -0.53000
C110        C  0.66613794  0.48034307  0.41581060     0.11100
H111        H  0.69621616  0.51952052  0.49646518     0.15600
H112        H  0.71191978  0.45187422  0.41151189     0.01400
H113        H  0.71557346  0.55962800  0.40558845     0.16000
H114        H  0.62859954  0.51589684  0.42590547     0.15700
C115        C  0.62437588  0.60751659  0.43539945     0.87500
C116        C  0.59824305  0.58514982  0.41858370    -0.52700
C117        C  0.56775999  0.59844078  0.41796116     0.10500
C118        C  0.56583857  0.63293420  0.43473604     0.21400
C119        C  0.62212339  0.64022028  0.41621712    -0.53400
C120        C  0.59131111  0.65327364  0.41533861     0.10600
C121        C  0.61114741  0.61575771  0.47035932    -0.53000
C122        C  0.58014637  0.62814664  0.47049449     0.11100
H123        H  0.60367833  0.56125223  0.40703717     0.15600
H124        H  0.54094440  0.64356114  0.43355174     0.01400
H125        H  0.64228440  0.65038312  0.40214391     0.16000
H126        H  0.62411925  0.60990358  0.49327246     0.15700
C127        C  0.48594106  0.59132550  0.57594315     0.87500
C128        C  0.51517028  0.60875357  0.55920354    -0.52700
C129        C  0.50680680  0.62606959  0.53105647     0.10500
C130        C  0.47001545  0.62525171  0.52335003     0.21400
C131        C  0.46085125  0.61929516  0.58306093    -0.53400
C132        C  0.45230789  0.63652138  0.55510301     0.10600
C133        C  0.47020862  0.57054462  0.54733599    -0.53000
C134        C  0.46184070  0.58843621  0.52016069     0.11100
H135        H  0.54018331  0.60509346  0.56743358     0.15600
H136        H  0.46281478  0.63933203  0.50083802     0.01400
H137        H  0.44938336  0.62379402  0.60702480     0.16000
H138        H  0.46659763  0.54385328  0.54801675     0.15700
C139        C  0.47269646  0.52433043  0.64182547     0.87500
C140        C  0.45845978  0.50155514  0.61399351    -0.52700
C141        C  0.45354123  0.46950895  0.62309018     0.10500
C142        C  0.46310261  0.46295279  0.65943748     0.21400
C143        C  0.44851529  0.52052183  0.67094478    -0.53400
C144        C  0.44321998  0.48830720  0.67986497     0.10600
C145        C  0.50433273  0.50661694  0.65329345    -0.53000
C146        C  0.49922188  0.47414703  0.66233796     0.11100
H147        H  0.45280728  0.51016004  0.58920485     0.15600
H148        H  0.45868341  0.43677638  0.66668851     0.01400
H149        H  0.43560880  0.54128948  0.68234854     0.16000
H150        H  0.52829379  0.51833409  0.65325098     0.15700
C151        C  0.46411889  0.51852657  0.34572255     0.87500
C152        C  0.48858972  0.53637196  0.36954367    -0.52700
C153        C  0.51648526  0.54674584  0.35470377     0.10500
C154        C  0.51793435  0.53783415  0.31747603     0.21400
C155        C  0.45854621  0.54337476  0.31715656    -0.53400
C156        C  0.48709285  0.55365641  0.30277060     0.10600
C157        C  0.48378933  0.49001403  0.32996099    -0.53000
C158        C  0.51241712  0.49990397  0.31562495     0.11100
H159        H  0.48487404  0.53937913  0.39614266     0.15600
H160        H  0.54093988  0.54616688  0.30559880     0.01400
H161        H  0.43486586  0.55285743  0.30977028     0.16000
H162        H  0.47700505  0.46419701  0.33333781     0.15700
C163        C  0.39199974  0.52376339  0.40528933     0.87500
C164        C  0.37935365  0.49044046  0.41937491    -0.52700
C165        C  0.36693258  0.49369539  0.45122345     0.10500
C166        C  0.36770191  0.52958560  0.46504462     0.21400
C167        C  0.36310615  0.54783927  0.40758874    -0.53400
C168        C  0.35093369  0.55114147  0.43898013     0.10600
C169        C  0.41622287  0.53696051  0.43206279    -0.53000
C170        C  0.40347543  0.53972246  0.46321414     0.11100
H171        H  0.38198558  0.46670999  0.40630361     0.15600
H172        H  0.35752652  0.53264483  0.49058570     0.01400
H173        H  0.35483770  0.56291633  0.38698057     0.16000
H174        H  0.44126964  0.54347677  0.42691773     0.15700
C175        C  0.60636099  0.31193804  0.41170622     0.87500
C176        C  0.62026618  0.33655844  0.43815942    -0.52700
C177        C  0.62056288  0.32497817  0.46987361     0.10500
C178        C  0.60626763  0.28984069  0.47262594     0.21400
C179        C  0.62687828  0.28043838  0.41624832    -0.53400
C180        C  0.62733768  0.26926655  0.44827905     0.10600
C181        C  0.57198986  0.30302446  0.42447722    -0.53000
C182        C  0.57165645  0.29168669  0.45650059     0.11100
H183        H  0.63024963  0.36068837  0.43201693     0.15600
H184        H  0.60710028  0.28075773  0.49860362     0.01400
H185        H  0.64217709  0.26996440  0.39671575     0.16000
H186        H  0.54957017  0.30663124  0.41041557     0.15700
C187        C  0.59156835  0.37538507  0.34414901     0.87500
C188        C  0.56127833  0.39057284  0.32754790    -0.52700
C189        C  0.56622527  0.42190490  0.31566894     0.10500
C190        C  0.60184278  0.43436912  0.32033746     0.21400
C191        C  0.61830535  0.37608203  0.31731086    -0.53400
C192        C  0.62379060  0.40722131  0.30528645     0.10600
C193        C  0.60234410  0.40173866  0.37039412    -0.53000
C194        C  0.60823842  0.43232509  0.35782571     0.11100
H195        H  0.53725522  0.37895181  0.32824890     0.15600
H196        H  0.60740672  0.45922851  0.31030814     0.01400
H197        H  0.63260886  0.35455486  0.30993659     0.16000
H198        H  0.60528743  0.39660598  0.39671926     0.15700
C199        C  0.46122383  0.29909401  0.55415104     0.87500
C200        C  0.48024726  0.28965723  0.52189526    -0.52700
C201        C  0.51047659  0.27607189  0.52825488     0.10500
C202        C  0.51795926  0.27233558  0.56566528     0.21400
C203        C  0.45944974  0.26707190  0.57443567    -0.53400
C204        C  0.48922902  0.25344314  0.58079563     0.10600
C205        C  0.48521690  0.32163643  0.57403465    -0.53000
C206        C  0.51487762  0.30760331  0.57982969     0.11100
H207        H  0.47177653  0.29506536  0.49687673     0.15600
H208        H  0.54212084  0.26104120  0.57105609     0.01400
H209        H  0.43697128  0.25758056  0.58497630     0.16000
H210        H  0.47933640  0.34683431  0.58195905     0.15700
C211        C  0.39910048  0.36598388  0.53033595     0.87500
C212        C  0.42106519  0.39209663  0.54814034    -0.52700
C213        C  0.40659108  0.42211497  0.55333688     0.10500
C214        C  0.37179348  0.42392487  0.53920382     0.21400
C215        C  0.36795007  0.36485540  0.55177543    -0.53400
C216        C  0.35409389  0.39545009  0.55706758     0.10600
C217        C  0.38880026  0.38245393  0.49767722    -0.53000
C218        C  0.37498240  0.41311147  0.50179763     0.11100
H219        H  0.44581023  0.38701634  0.55645128     0.15600
H220        H  0.36048545  0.44853309  0.54391705     0.01400
H221        H  0.35966268  0.34266234  0.56425689     0.16000
H222        H  0.39461984  0.37199246  0.47321367     0.15700
In223      In  0.71970642  0.46716856  0.18726755     1.36900
C224        C  0.71753991  0.41059212  0.15434888     0.78600
O225        O  0.74770720  0.48417516  0.14391682    -0.59800
O226        O  0.77275435  0.48392022  0.19114827    -0.50700
C227        C  0.68786502  0.52283514  0.18234073     0.71300
O228        O  0.68482791  0.49890147  0.16151952    -0.45600
C229        C  0.68922602  0.44212520  0.23892870     0.76000
O230        O  0.69746938  0.43375731  0.14933288    -0.57400
O231        O  0.71946541  0.44959863  0.24083753    -0.47500
O232        O  0.73914623  0.41650799  0.17658214    -0.53900
C233        C  0.77377421  0.48983248  0.16005287     0.86200
O234        O  0.70760651  0.51824923  0.20637417    -0.55800
O235        O  0.67527318  0.44872012  0.21172779    -0.59100
In236      In  0.53157746  0.64710468  0.17504726     1.36900
C237        C  0.47850996  0.63513922  0.14062443     0.78600
O238        O  0.51404027  0.60292135  0.20196649    -0.59800
O239        O  0.51519155  0.64911419  0.22942502    -0.50700
C240        C  0.58896366  0.61938541  0.17535504     0.71300
O241        O  0.56698001  0.61253383  0.15387972    -0.45600
C242        C  0.54862707  0.70137274  0.14214969     0.76000
O243        O  0.50397616  0.61782553  0.13738885    -0.57400
O244        O  0.54020446  0.70323458  0.17268101    -0.47500
O245        O  0.48026062  0.65879220  0.16201486    -0.53900
C246        C  0.50865171  0.61808398  0.22916096     0.86200
O247        O  0.58170366  0.64135157  0.19714340    -0.55800
O248        O  0.54831051  0.67248794  0.12946147    -0.59100
In249      In  0.72800797  0.27887760  0.99691478     1.36900
C250        C  0.72203708  0.31040576  0.05379389     0.78600
O251        O  0.68274498  0.25318112  0.01323568    -0.59800
O252        O  0.72629572  0.22421854  0.01196512    -0.50700
C253        C  0.69929543  0.27992126  0.93866876     0.71300
O254        O  0.69352932  0.30077198  0.96194206    -0.45600
C255        C  0.78028198  0.31364801  0.97815536     0.76000
O256        O  0.70284438  0.31447467  0.02925312    -0.57400
O257        O  0.78252785  0.28298151  0.98538140    -0.47500
O258        O  0.74474879  0.28958031  0.04920786    -0.53900
C259        C  0.69580427  0.22543675  0.01824821     0.86200
O260        O  0.72072098  0.25827735  0.94507747    -0.55800
O261        O  0.75198775  0.32552896  0.98046809    -0.59100
In262      In  0.34252538  0.63412421  0.98962300     1.36900
C263        C  0.34432902  0.60537531  0.93060486     0.78600
O264        O  0.31642611  0.58972408  0.00637383    -0.59800
O265        O  0.29159887  0.63641152  0.01059598    -0.50700
C266        C  0.37717753  0.62640663  0.04356284     0.71300
O267        O  0.37977307  0.60739287  0.01814985    -0.45600
C268        C  0.37128770  0.68979831  0.97284549     0.76000
O269        O  0.36593394  0.60161009  0.95289335    -0.57400
O270        O  0.34066379  0.68892197  0.97782683    -0.47500
O271        O  0.32098071  0.62436320  0.93850378    -0.53900
C272        C  0.29163088  0.60537713  0.01604470     0.86200
O273        O  0.35579377  0.64886840  0.04156413    -0.55800
O274        O  0.38613343  0.66290741  0.97665612    -0.59100
In275      In  0.35214733  0.44261314  0.81018166     1.36900
C276        C  0.38566777  0.38876209  0.81682067     0.78600
O277        O  0.33352911  0.42835400  0.85962267    -0.59800
O278        O  0.30046002  0.42311632  0.81787291    -0.50700
C279        C  0.35026590  0.50300310  0.83435709     0.71300
O280        O  0.37339971  0.48320574  0.84038840    -0.45600
C281        C  0.38111148  0.45982733  0.75402281     0.76000
O282        O  0.39070951  0.41468767  0.83474091    -0.57400
O283        O  0.35130158  0.45022811  0.75381394    -0.47500
O284        O  0.36291346  0.39045724  0.79515897    -0.53900
C285        C  0.30547495  0.41980108  0.84917771     0.86200
O286        O  0.32780931  0.49187892  0.81499563    -0.55800
O287        O  0.39503645  0.46031189  0.78227238    -0.59100
In288      In  0.54298046  0.26569164  0.81231291     1.36900
C289        C  0.48635388  0.29378713  0.81854854     0.78600
O290        O  0.55648388  0.31255920  0.78845749    -0.59800
O291        O  0.55535525  0.26842021  0.75735178    -0.50700
C292        C  0.60003962  0.27222065  0.84083996     0.71300
O293        O  0.57627827  0.29114189  0.84728612    -0.45600
C294        C  0.52459231  0.21136799  0.84272066     0.76000
O295        O  0.50970746  0.29898860  0.83899301    -0.57400
O296        O  0.52971709  0.21074674  0.81134972    -0.47500
O297        O  0.49188699  0.27320918  0.79488968    -0.53900
C298        C  0.56072137  0.29964473  0.75992200     0.86200
O299        O  0.59454514  0.24924749  0.81927111    -0.55800
O300        O  0.52965703  0.23889164  0.85750836    -0.59100
C301        C  0.12009279  0.50768105  0.16181935     0.87500
C302        C  0.09490909  0.52170920  0.13739488    -0.52700
C303        C  0.06475978  0.52644490  0.15039702     0.10500
C304        C  0.06165221  0.51494115  0.18646905     0.21400
C305        C  0.11912421  0.53155120  0.19260774    -0.53400
C306        C  0.08828135  0.53561646  0.20535710     0.10600
C307        C  0.10455693  0.47514069  0.17330158    -0.53000
C308        C  0.07361815  0.47822126  0.18534749     0.11100
H309        H  0.10056752  0.52783988  0.11186645     0.15600
H310        H  0.03686522  0.51892085  0.19663321     0.01400
H311        H  0.14032305  0.54529016  0.20207611     0.16000
H312        H  0.11581891  0.45106576  0.16890801     0.15700
C313        C  0.18290372  0.52233820  0.09310897     0.87500
C314        C  0.19413447  0.48717659  0.08172339    -0.52700
C315        C  0.20698842  0.48583255  0.05015165     0.10500
C316        C  0.20779234  0.51997172  0.03328123     0.21400
C317        C  0.21292901  0.54497743  0.08916188    -0.53400
C318        C  0.22543794  0.54404483  0.05770137     0.10600
C319        C  0.15940030  0.53310165  0.06509725    -0.53000
C320        C  0.17256156  0.53193819  0.03394679     0.11100
H321        H  0.19064843  0.46491345  0.09608792     0.15600
H322        H  0.21807019  0.52018133  0.00775933     0.01400
H323        H  0.22155235  0.56236485  0.10851955     0.16000
H324        H  0.13483682  0.54192365  0.06960886     0.15700
C325        C  0.19424093  0.37500967  0.95184026     0.87500
C326        C  0.17469935  0.40086704  0.93235998    -0.52700
C327        C  0.19189031  0.42894886  0.92559009     0.10500
C328        C  0.22665509  0.42933365  0.93949684     0.21400
C329        C  0.22502369  0.36909846  0.93055866    -0.53400
C330        C  0.24153908  0.39788206  0.92349611     0.10600
C331        C  0.20619208  0.39413480  0.98347755    -0.53000
C332        C  0.22245332  0.42321758  0.97715272     0.11100
H333        H  0.14950029  0.39745207  0.92460570     0.15600
H334        H  0.24028281  0.45255335  0.93391262     0.01400
H335        H  0.23093428  0.34517802  0.91914349     0.16000
H336        H  0.19966310  0.38653947  0.00838553     0.15700
C337        C  0.97149246  0.37445387  0.15454345     0.87500
C338        C  0.00239118  0.39166252  0.16986425    -0.52700
C339        C  0.99615454  0.42235202  0.18454351     0.10500
C340        C  0.96000082  0.43195016  0.18322677     0.21400
C341        C  0.94683653  0.37290104  0.18327222    -0.53400
C342        C  0.94059301  0.40313753  0.19770969     0.10600
C343        C  0.95698392  0.40045643  0.13107080    -0.53000
C344        C  0.95128748  0.43044258  0.14623567     0.11100
H345        H  0.02669429  0.38147787  0.16713019     0.15600
H346        H  0.95454421  0.45646067  0.19525151     0.01400
H347        H  0.93358209  0.35047181  0.18973560     0.16000
H348        H  0.95145766  0.39566277  0.10494939     0.15700
C349        C  0.98460215  0.31767181  0.07789897     0.87500
C350        C  0.96735860  0.34130319  0.05395217    -0.52700
C351        C  0.95787627  0.32696815  0.02434856     0.10500
C352        C  0.96703866  0.29037664  0.02065418     0.21400
C353        C  0.96048600  0.28796763  0.08102348    -0.53400
C354        C  0.95100661  0.27416435  0.05080037     0.10600
C355        C  0.01339408  0.30390535  0.05734510    -0.53000
C356        C  0.00429484  0.29002319  0.02689390     0.11100
H357        H  0.96403829  0.36752362  0.05934553     0.15600
H358        H  0.95925983  0.27905477  0.99621950     0.01400
H359        H  0.95055167  0.27954949  0.10441262     0.16000
H360        H  0.03859205  0.30736201  0.06536983     0.15700
C361        C  0.12529722  0.31149397  0.93496376     0.87500
C362        C  0.11113180  0.30104310  0.96881205    -0.52700
C363        C  0.07891829  0.29125977  0.96727886     0.10500
C364        C  0.06444164  0.29155433  0.93127840     0.21400
C365        C  0.11966493  0.28129593  0.91130753    -0.53400
C366        C  0.08777780  0.27113857  0.90906488     0.10600
C367        C  0.10143312  0.33767637  0.92216432    -0.53000
C368        C  0.06974078  0.32727485  0.92002176     0.11100
H369        H  0.12449121  0.30337378  0.99232045     0.15600
H370        H  0.03865695  0.28332104  0.92848460     0.01400
H371        H  0.13881251  0.27028473  0.89618161     0.16000
H372        H  0.10903884  0.36226723  0.91491899     0.15700
C373        C  0.89568317  0.40437794  0.91830256     0.87500
C374        C  0.91858590  0.38995135  0.94462553    -0.52700
C375        C  0.90554787  0.38802616  0.97563243     0.10500
C376        C  0.87075855  0.40150109  0.97800910     0.21400
C377        C  0.86476574  0.38231839  0.91990817    -0.53400
C378        C  0.85192057  0.38039809  0.95133018     0.10600
C379        C  0.88565859  0.43846632  0.93292622    -0.53000
C380        C  0.87330486  0.43745267  0.96455216     0.11100
H381        H  0.94282403  0.38098107  0.93890507     0.15600
H382        H  0.86058723  0.39937877  0.00346049     0.01400
H383        H  0.85548599  0.36759138  0.89875548     0.16000
H384        H  0.89056143  0.46170922  0.92051880     0.15700
C385        C  0.96885070  0.41579415  0.86035671     0.87500
C386        C  0.98815763  0.44619656  0.84833018    -0.52700
C387        C  0.01740237  0.43880181  0.83370769     0.10500
C388        C  0.02401657  0.40103884  0.83172719     0.21400
C389        C  0.96478472  0.39286652  0.82918920    -0.53400
C390        C  0.99390756  0.38485996  0.81473362     0.10600
C391        C  0.99316984  0.39755742  0.88294276    -0.53000
C392        C  0.02180350  0.38958281  0.86777900     0.11100
H393        H  0.98037436  0.47159841  0.85323127     0.15600
H394        H  0.04720233  0.39366835  0.81969293     0.01400
H395        H  0.94163312  0.38232214  0.82057400     0.16000
H396        H  0.98832030  0.39176773  0.90874645     0.15700
C397        C  0.89371323  0.54207705  0.07168546     0.87500
C398        C  0.88096228  0.52580258  0.03846700    -0.52700
C399        C  0.86575246  0.49543476  0.04267822     0.10500
C400        C  0.86390446  0.48520744  0.07938617     0.21400
C401        C  0.86378887  0.54411867  0.09465803    -0.53400
C402        C  0.84853824  0.51425597  0.09891197     0.10600
C403        C  0.91500909  0.51513566  0.08725586    -0.53000
C404        C  0.89940819  0.48547137  0.09110041     0.11100
H405        H  0.88564595  0.53620478  0.01418021     0.15600
H406        H  0.85143345  0.46093640  0.08318816     0.01400
H407        H  0.85659224  0.56668853  0.10796270     0.16000
H408        H  0.94022361  0.51911902  0.09461120     0.15700
C409        C  0.97035311  0.59664579  0.06207555     0.87500
C410        C  0.99211617  0.57309388  0.08199023    -0.52700
C411        C  0.02128496  0.58648924  0.09194218     0.10500
C412        C  0.02675278  0.62207996  0.08043008     0.21400
C413        C  0.96766818  0.62818008  0.08491041    -0.53400
C414        C  0.99749603  0.64109122  0.09484992     0.10600
C415        C  0.99182091  0.60724551  0.03269374    -0.53000
C416        C  0.02169156  0.62024634  0.04212981     0.11100
H417        H  0.98547690  0.54762812  0.08701227     0.15600
H418        H  0.05083129  0.63263688  0.08847369     0.01400
H419        H  0.94474493  0.63832099  0.09370379     0.16000
H420        H  0.98467345  0.60228921  0.00688433     0.15700
C421        C  0.12877438  0.53343949  0.84550285     0.87500
C422        C  0.14271888  0.50932077  0.87093069    -0.52700
C423        C  0.14659233  0.47770907  0.85895126     0.10500
C424        C  0.13608092  0.47276571  0.82239048     0.21400
C425        C  0.15238073  0.53079494  0.81574056    -0.53400
C426        C  0.15632734  0.49885909  0.80372490     0.10600
C427        C  0.09674733  0.51687524  0.83274763    -0.53000
C428        C  0.10029487  0.48456546  0.82167785     0.11100
H429        H  0.14875957  0.51675114  0.89643599     0.15600
H430        H  0.13943572  0.44685525  0.81285156     0.01400
H431        H  0.16565403  0.55191843  0.80604204     0.16000
H432        H  0.07333941  0.52915176  0.83435392     0.15700
C433        C  0.10612245  0.59386426  0.91682266     0.87500
C434        C  0.07375033  0.60606867  0.93198284    -0.52700
C435        C  0.07682431  0.62053584  0.96320994     0.10500
C436        C  0.11274022  0.62307767  0.97540013     0.21400
C437        C  0.12849872  0.62479267  0.91666967    -0.53400
C438        C  0.13225022  0.63973224  0.94750345     0.10600
C439        C  0.12068855  0.57164507  0.94393308    -0.53000
C440        C  0.12429843  0.58704401  0.97450469     0.11100
H441        H  0.05012655  0.60051715  0.92045616     0.15600
H442        H  0.11649207  0.63573135  0.00005425     0.01400
H443        H  0.14125727  0.63328349  0.89475286     0.16000
H444        H  0.12635983  0.54567699  0.93952989     0.15700
C445        C  0.60295047  0.03910084  0.15030357     0.87500
C446        C  0.57413000  0.01917166  0.16497192    -0.52700
C447        C  0.58289453  0.98871877  0.17730662     0.10500
C448        C  0.61965243  0.98192812  0.17470786     0.21400
C449        C  0.62865943  0.04197001  0.17880432    -0.53400
C450        C  0.63762017  0.01176928  0.19108101     0.10600
C451        C  0.61781847  0.01480315  0.12477276    -0.53000
C452        C  0.62658637  0.98513579  0.13765882     0.11100
H453        H  0.54903269  0.02731756  0.16267504     0.15600
H454        H  0.62719000  0.95754540  0.18476624     0.01400
H455        H  0.63993736  0.06528891  0.18707966     0.16000
H456        H  0.62001251  0.02003083  0.09843669     0.15700
C457        C  0.61228029  0.10811424  0.08583523     0.87500
C458        C  0.62549324  0.08467880  0.05843077    -0.52700
C459        C  0.62487863  0.09742565  0.02714602     0.10500
C460        C  0.61084733  0.13251096  0.02583403     0.21400
C461        C  0.63282297  0.14013484  0.08241106    -0.53400
C462        C  0.63263491  0.15264191  0.05086619     0.10600
C463        C  0.57761565  0.11707929  0.07341826    -0.53000
C464        C  0.57635561  0.12889579  0.04148907     0.11100
H465        H  0.63492301  0.06021980  0.06362217     0.15600
H466        H  0.61145488  0.14280447  0.00039765     0.01400
H467        H  0.64839936  0.15020528  0.10237994     0.16000
H468        H  0.55561921  0.11166869  0.08720881     0.15700
C469        C  0.45639387  0.90509666  0.15502345     0.87500
C470        C  0.47941123  0.89054565  0.12841481    -0.52700
C471        C  0.51037143  0.88495313  0.13970622     0.10500
C472        C  0.51591890  0.89542394  0.17643260     0.21400
C473        C  0.45837570  0.88082982  0.18417375    -0.53400
C474        C  0.48967766  0.87538592  0.19509459     0.10600
C475        C  0.47380617  0.93687956  0.16774065    -0.53000
C476        C  0.50528912  0.93246164  0.17822566     0.11100
H477        H  0.47182655  0.88551404  0.10278007     0.15600
H478        H  0.54106097  0.89049116  0.18553573     0.01400
H479        H  0.43728276  0.86788821  0.19397995     0.16000
H480        H  0.46301301  0.96137902  0.16579360     0.15700
C481        C  0.46470897  0.10245097  0.94086679     0.87500
C482        C  0.48435703  0.11489260  0.97236833    -0.52700
C483        C  0.51568625  0.12549601  0.96523756     0.10500
C484        C  0.52380249  0.12286704  0.92784640     0.21400
C485        C  0.46622782  0.13147359  0.91624180    -0.53400
C486        C  0.49719299  0.14162428  0.90915009     0.10600
C487        C  0.48658977  0.07575331  0.92476798    -0.53000
C488        C  0.51740434  0.08653364  0.91813725     0.11100
H489        H  0.47477097  0.11433369  0.99751968     0.15600
H490        H  0.54891683  0.13134709  0.92170779     0.01400
H491        H  0.44484860  0.14152670  0.90383127     0.16000
H492        H  0.47835924  0.05077290  0.91854137     0.15700
C493        C  0.39845946  0.03565360  0.95518691     0.87500
C494        C  0.41814143  0.00890585  0.93667678    -0.52700
C495        C  0.40055828  0.98150376  0.92719301     0.10500
C496        C  0.36490533  0.98247131  0.93744036     0.21400
C497        C  0.36923784  0.04253341  0.93115747    -0.53400
C498        C  0.35211802  0.01428865  0.92155030     0.10600
C499        C  0.38345152  0.01697695  0.98483309    -0.53000
C500        C  0.36622225  0.98864805  0.97555365     0.11100
H501        H  0.44404367  0.01096871  0.93192391     0.15600
H502        H  0.35108399  0.95968890  0.92946642     0.01400
H503        H  0.36385512  0.06670854  0.92102079     0.16000
H504        H  0.38838820  0.02432935  0.01063299     0.15700
C505        C  0.38603969  0.89147745  0.09266422     0.87500
C506        C  0.37726668  0.92683595  0.08124192    -0.52700
C507        C  0.36306103  0.92785566  0.05007703     0.10500
C508        C  0.35717393  0.89273519  0.03418328     0.21400
C509        C  0.35393223  0.87157330  0.09083661    -0.53400
C510        C  0.33913781  0.87173119  0.06008990     0.10600
C511        C  0.40628477  0.87698214  0.06383469    -0.53000
C512        C  0.39107350  0.87732332  0.03339472     0.11100
H513        H  0.38442307  0.94943893  0.09470416     0.15600
H514        H  0.34478463  0.89199663  0.00942159     0.01400
H515        H  0.34556985  0.85596907  0.11089461     0.16000
H516        H  0.43046357  0.86673163  0.06744361     0.15700
C517        C  0.46954282  0.87597679  0.85170394     0.87500
C518        C  0.45666031  0.90165538  0.87702569    -0.52700
C519        C  0.44872212  0.93129484  0.86361752     0.10500
C520        C  0.45484436  0.93321478  0.82621448     0.21400
C521        C  0.44266771  0.87373633  0.82406749    -0.53400
C522        C  0.43474320  0.90407696  0.81117652     0.10600
C523        C  0.49864720  0.89360773  0.83547991    -0.53000
C524        C  0.49111804  0.92402878  0.82255687     0.11100
H525        H  0.45456404  0.89700240  0.90350842     0.15600
H526        H  0.44836906  0.95774726  0.81578703     0.01400
H527        H  0.43005110  0.85083387  0.81675975     0.16000
H528        H  0.52316418  0.88363115  0.83640491     0.15700
C529        C  0.45693280  0.80960809  0.91765802     0.87500
C530        C  0.49033513  0.80074302  0.93415926    -0.52700
C531        C  0.48713677  0.78747511  0.96555916     0.10500
C532        C  0.45149515  0.78399890  0.97664878     0.21400
C533        C  0.43650198  0.77745294  0.91801199    -0.53400
C534        C  0.43321369  0.76457792  0.94893047     0.10600
C535        C  0.44065676  0.83258133  0.94371362    -0.53000
C536        C  0.43807122  0.81913335  0.97454657     0.11100
H537        H  0.51382998  0.80578821  0.92300962     0.15600
H538        H  0.44860719  0.77309640  0.00176941     0.01400
H539        H  0.42336154  0.76749999  0.89622672     0.16000
H540        H  0.43230182  0.85740527  0.93816884     0.15700
C541        C  0.61114157  0.81842670  0.05592911     0.87500
C542        C  0.58740777  0.84283105  0.07267683    -0.52700
C543        C  0.55611831  0.83130885  0.07469160     0.10500
C544        C  0.55106585  0.79644079  0.05909051     0.21400
C545        C  0.60742415  0.78642868  0.07610528    -0.53400
C546        C  0.57590748  0.77520121  0.07827619     0.10600
C547        C  0.59555361  0.81020656  0.02146255    -0.53000
C548        C  0.56388156  0.79910422  0.02275218     0.11100
H549        H  0.59502417  0.86681414  0.08303321     0.15600
H550        H  0.52551983  0.78744393  0.06132511     0.01400
H551        H  0.62752512  0.77530383  0.08968973     0.16000
H552        H  0.60768859  0.81435721  0.99794586     0.15700
C553        C  0.67876849  0.88350636  0.04381472     0.87500
C554        C  0.69250903  0.90370562  0.01453298    -0.52700
C555        C  0.70892922  0.93229161  0.02463323     0.10500
C556        C  0.71056488  0.93717035  0.06274416     0.21400
C557        C  0.70842240  0.87679167  0.06682134    -0.53400
C558        C  0.72452863  0.90520310  0.07705812     0.10600
C559        C  0.65824232  0.90881831  0.06347002    -0.53000
C560        C  0.67505313  0.93663093  0.07336527     0.11100
H561        H  0.68738294  0.89707301  0.98859115     0.15600
H562        H  0.72384269  0.96007480  0.07136640     0.01400
H563        H  0.71456746  0.85238176  0.07600920     0.16000
H564        H  0.63249420  0.90544548  0.06858728     0.15700
C565        C  0.61691631  0.00833593  0.84567485     0.87500
C566        C  0.60086963  0.97538403  0.83385359    -0.52700
C567        C  0.56934311  0.97838883  0.82254054     0.10500
C568        C  0.55742363  0.01489939  0.82290175     0.21400
C569        C  0.61448935  0.03139877  0.81566449    -0.53400
C570        C  0.58321601  0.03506604  0.80407425     0.10600
C571        C  0.59286075  0.02255599  0.87129771    -0.53000
C572        C  0.56196003  0.02659245  0.85926036     0.11100
H573        H  0.61234554  0.95139404  0.83726357     0.15600
H574        H  0.53228198  0.01889649  0.81335508     0.01400
H575        H  0.63519615  0.04486515  0.80572853     0.16000
H576        H  0.59965457  0.02857545  0.89691840     0.15700
C577        C  0.68439026  0.02925373  0.90924736     0.87500
C578        C  0.66147872  0.04129481  0.93718062    -0.52700
C579        C  0.67526892  0.04191172  0.96831943     0.10500
C580        C  0.71054231  0.02997269  0.96906176     0.21400
C581        C  0.71430034  0.05250032  0.91298560    -0.53400
C582        C  0.72764490  0.05325673  0.94452109     0.10600
C583        C  0.69633324  0.99497874  0.92058942    -0.53000
C584        C  0.70903296  0.99483512  0.95228237     0.11100
H585        H  0.63685296  0.04977934  0.93253712     0.15600
H586        H  0.72165957  0.03139193  0.99443096     0.01400
H587        H  0.72229706  0.06893781  0.89344838     0.16000
H588        H  0.69271162  0.97202073  0.90633734     0.15700
In589      In  0.53442948  0.12594286  0.67490934     1.36900
C590        C  0.59130168  0.12657263  0.64633702     0.78600
O591        O  0.51582518  0.15037668  0.62963433    -0.59800
O592        O  0.51985695  0.18013117  0.67462042    -0.50700
C593        C  0.47973185  0.09272816  0.67074951     0.71300
O594        O  0.50325398  0.08723420  0.65111783    -0.45600
C595        C  0.55470172  0.09643799  0.72949929     0.76000
O596        O  0.56959806  0.10482620  0.63941266    -0.57400
O597        O  0.54559650  0.12664585  0.73050375    -0.47500
O598        O  0.58389600  0.14797979  0.66861131    -0.53900
C599        C  0.51234835  0.17846299  0.64366880     0.86200
O600        O  0.48419208  0.11597234  0.69221287    -0.55800
O601        O  0.55345301  0.08226872  0.70113417    -0.59100
In602      In  0.72757567  0.14918169  0.50019359     1.36900
C603        C  0.73207008  0.12445296  0.43988865     0.78600
O604        O  0.68182551  0.17146027  0.48214339    -0.59800
O605        O  0.72278149  0.20432421  0.49044984    -0.50700
C606        C  0.69426819  0.13901107  0.55406700     0.71300
O607        O  0.69261178  0.11992519  0.52850955    -0.45600
C608        C  0.77961572  0.11875258  0.52310405     0.76000
O609        O  0.70970800  0.11631378  0.45979861    -0.57400
O610        O  0.77978224  0.15022577  0.51971401    -0.47500
O611        O  0.75246777  0.14599369  0.45082719    -0.53900
C612        C  0.69303656  0.20066881  0.48117283     0.86200
O613        O  0.71384495  0.16348832  0.55223601    -0.55800
O614        O  0.75339221  0.10396135  0.51494050    -0.59100
In615      In  0.73197493  0.96447871  0.31710036     1.36900
C616        C  0.73629932  0.02395359  0.34349815     0.78600
O617        O  0.75278615  0.94631289  0.36435885    -0.59800
O618        O  0.78257885  0.94201222  0.32072418    -0.50700
C619        C  0.69371983  0.91275197  0.32141785     0.71300
O620        O  0.69227881  0.93757457  0.34133777    -0.45600
C621        C  0.70341325  0.98667691  0.26261597     0.76000
O622        O  0.71318838  0.00393070  0.34934827    -0.57400
O623        O  0.73236921  0.97518185  0.26151056    -0.47500
O624        O  0.75848515  0.01307667  0.32438276    -0.53900
C625        C  0.77936709  0.93688442  0.35185991     0.86200
O626        O  0.71536151  0.91434468  0.29906794    -0.55800
O627        O  0.69016539  0.98649418  0.29085266    -0.59100
In628      In  0.33640350  0.94868551  0.68537042     1.36900
C629        C  0.37486647  0.99943516  0.67686259     0.78600
O630        O  0.31426603  0.96443424  0.63740477    -0.59800
O631        O  0.28594220  0.97230104  0.68147580    -0.50700
C632        C  0.33256645  0.88791211  0.66204128     0.71300
O633        O  0.35531326  0.90787834  0.65492313    -0.45600
C634        C  0.36699914  0.92944200  0.74059352     0.76000
O635        O  0.37557494  0.97348233  0.65843862    -0.57400
O636        O  0.33771631  0.94013438  0.74180826    -0.47500
O637        O  0.35364920  0.99959859  0.69973253    -0.53900
C638        C  0.28836609  0.97565146  0.64995671     0.86200
O639        O  0.31035085  0.89948195  0.68072003    -0.55800
O640        O  0.37956380  0.92922487  0.71203372    -0.59100
In641      In  0.35232742  0.75808738  0.51138731     1.36900
C642        C  0.38943295  0.76637358  0.45951933     0.78600
O643        O  0.39540056  0.73458578  0.53433673    -0.59800
O644        O  0.35483552  0.70261612  0.52154639    -0.50700
C645        C  0.34308686  0.78389941  0.57062808     0.71300
O646        O  0.36764126  0.79074723  0.55298728    -0.45600
C647        C  0.30351472  0.79038472  0.48329847     0.76000
O648        O  0.39127281  0.78503317  0.48541126    -0.57400
O649        O  0.30199432  0.75894665  0.48686479    -0.47500
O650        O  0.36839118  0.74312187  0.46037399    -0.53900
C651        C  0.38366751  0.70553562  0.53375884     0.86200
O652        O  0.32293291  0.76298270  0.55797562    -0.55800
O653        O  0.32929114  0.80432937  0.49425764    -0.59100
In654      In  0.53816188  0.78008159  0.32207685     1.36900
C655        C  0.59218230  0.81497309  0.32455324     0.78600
O656        O  0.56051786  0.75573185  0.36588242    -0.59800
O657        O  0.55163325  0.72508991  0.32236755    -0.50700
C658        C  0.48466194  0.77986051  0.35711971     0.71300
O659        O  0.50664650  0.80194179  0.36074619    -0.45600
C660        C  0.51574428  0.81001768  0.26786385     0.76000
O661        O  0.56921798  0.81914890  0.34507824    -0.57400
O662        O  0.52621987  0.78028110  0.26614991    -0.47500
O663        O  0.58774730  0.79196274  0.30283257    -0.53900
C664        C  0.56172577  0.72712150  0.35259074     0.86200
O665        O  0.48933468  0.75853517  0.33390505    -0.55800
O666        O  0.51559944  0.82292444  0.29679277    -0.59100
C667        C  0.11763017  0.10624276  0.57691696     0.87500
C668        C  0.09909302  0.11734294  0.54492887    -0.52700
C669        C  0.06803403  0.12898013  0.55116478     0.10500
C670        C  0.05924027  0.12911196  0.58837680     0.21400
C671        C  0.11718361  0.13669047  0.60082858    -0.53400
C672        C  0.08656602  0.14823800  0.60705743     0.10600
C673        C  0.09431901  0.08120323  0.59293263    -0.53000
C674        C  0.06380116  0.09314996  0.59859593     0.11100
H675        H  0.10888998  0.11467171  0.51999132     0.15600
H676        H  0.03440076  0.13872229  0.59380179     0.01400
H677        H  0.13891260  0.14696385  0.61312599     0.16000
H678        H  0.10128418  0.05607576  0.59890263     0.15700
C679        C  0.18059977  0.04077920  0.55154970     0.87500
C680        C  0.15752788  0.01418102  0.56504374    -0.52700
C681        C  0.17155696  0.98401893  0.56924559     0.10500
C682        C  0.20719433  0.98242862  0.55837507     0.21400
C683        C  0.21024418  0.04092036  0.57596964    -0.53400
C684        C  0.22369159  0.01003695  0.57994316     0.10600
C685        C  0.19321934  0.02537455  0.51869473    -0.53000
C686        C  0.20684289  0.99457153  0.52181642     0.11100
H687        H  0.13230493  0.01888297  0.57139440     0.15600
H688        H  0.21797192  0.95754823  0.56217561     0.01400
H689        H  0.21803364  0.06262012  0.59066481     0.16000
H690        H  0.18917408  0.03666181  0.49458921     0.15700
C691        C  0.19204209  0.88527021  0.42226290     0.87500
C692        C  0.20609003  0.91835510  0.43697896    -0.52700
C693        C  0.22092915  0.91520499  0.46778694     0.10500
C694        C  0.22188908  0.87909587  0.47971046     0.21400
C695        C  0.22105463  0.86102156  0.42114292    -0.53400
C696        C  0.23638607  0.85756378  0.45141603     0.10600
C697        C  0.17038342  0.87190324  0.45006529    -0.53000
C698        C  0.18608308  0.86865496  0.47997674     0.11100
H699        H  0.20182501  0.94212192  0.42545759     0.15600
H700        H  0.23436236  0.87603182  0.50426971     0.01400
H701        H  0.22720448  0.84611724  0.39917493     0.16000
H702        H  0.14483518  0.86541519  0.44627760     0.15700
C703        C  0.98616608  0.09755032  0.42265497     0.87500
C704        C  0.97022353  0.07555629  0.44887973    -0.52700
C705        C  0.96532829  0.09111642  0.47894820     0.10500
C706        C  0.97786770  0.12702266  0.48074004     0.21400
C707        C  0.96397174  0.12847799  0.42115873    -0.53400
C708        C  0.95912019  0.14352176  0.45184829     0.10600
C709        C  0.01799362  0.10991006  0.43941065    -0.53000
C710        C  0.01429349  0.12454321  0.47025432     0.11100
H711        H  0.96339990  0.04981639  0.44416058     0.15600
H712        H  0.97343249  0.13938817  0.50528577     0.01400
H713        H  0.95135615  0.13617308  0.39864893     0.16000
H714        H  0.04185798  0.10448610  0.42905092     0.15700
C715        C  0.96518855  0.03457584  0.35248614     0.87500
C716        C  0.99666725  0.01588033  0.34186163    -0.52700
C717        C  0.99088033  0.98382254  0.33013985     0.10500
C718        C  0.95445366  0.97450238  0.32882369     0.21400
C719        C  0.94264901  0.03317428  0.32146614    -0.53400
C720        C  0.93677771  0.00164720  0.30946929     0.10600
C721        C  0.94867994  0.01123329  0.37714161    -0.53000
C722        C  0.94338101  0.97983207  0.36474469     0.11100
H723        H  0.02100315  0.02627046  0.34532028     0.15600
H724        H  0.94940823  0.94891755  0.31886960     0.01400
H725        H  0.93075934  0.05487713  0.31133189     0.16000
H726        H  0.94217539  0.01886406  0.40226606     0.15700
C727        C  0.11459447  0.90068944  0.36920053     0.87500
C728        C  0.09009515  0.88499106  0.39304232    -0.52700
C729        C  0.05979045  0.87942691  0.37957273     0.10500
C730        C  0.05622380  0.89111330  0.34341960     0.21400
C731        C  0.11412147  0.87715131  0.33810399    -0.53400
C732        C  0.08334940  0.87175606  0.32490951     0.10600
C733        C  0.09794595  0.93262210  0.35783375    -0.53000
C734        C  0.06720685  0.92826765  0.34478907     0.11100
H735        H  0.09630767  0.87884165  0.41857723     0.15600
H736        H  0.03142968  0.88639446  0.33281361     0.01400
H737        H  0.13553487  0.86458828  0.32846997     0.16000
H738        H  0.10878295  0.95712167  0.36213508     0.15700
C739        C  0.95904172  0.80870360  0.45930299     0.87500
C740        C  0.98268199  0.83305405  0.44277366    -0.52700
C741        C  0.01318732  0.82077660  0.43765414     0.10500
C742        C  0.01780331  0.78540474  0.45054324     0.21400
C743        C  0.95989221  0.77707024  0.43674592    -0.53400
C744        C  0.99086633  0.76514023  0.43168668     0.10600
C745        C  0.97650565  0.79928223  0.49181052    -0.53000
C746        C  0.00746077  0.78762698  0.48785365     0.11100
H747        H  0.97588531  0.85800383  0.43599617     0.15600
H748        H  0.04274063  0.77579327  0.44608694     0.01400
H749        H  0.93838928  0.76647984  0.42432811     0.16000
H750        H  0.96607839  0.80390109  0.51632843     0.15700
C751        C  0.88968870  0.87024384  0.44322300     0.87500
C752        C  0.88001510  0.88449154  0.47800383    -0.52700
C753        C  0.86652138  0.91568473  0.47728992     0.10500
C754        C  0.86262881  0.92882306  0.44136430     0.21400
C755        C  0.85830650  0.87107327  0.42177030    -0.53400
C756        C  0.84455423  0.90188661  0.42034038     0.10600
C757        C  0.91134017  0.89751781  0.42865590    -0.53000
C758        C  0.89705619  0.92793370  0.42745787     0.11100
H759        H  0.88587935  0.87269013  0.50139292     0.15600
H760        H  0.85129963  0.95361023  0.43907744     0.01400
H761        H  0.84990460  0.85014958  0.40625480     0.16000
H762        H  0.93561042  0.89291419  0.41908154     0.15700
C763        C  0.11366412  0.80674699  0.59169308     0.87500
C764        C  0.08133514  0.79503160  0.57430603    -0.52700
C765        C  0.08591290  0.78090415  0.54294558     0.10500
C766        C  0.12193352  0.77898644  0.53301859     0.21400
C767        C  0.13553511  0.77596452  0.59219177    -0.53400
C768        C  0.14025553  0.76201677  0.56138955     0.10600
C769        C  0.12991508  0.82947122  0.56619579    -0.53000
C770        C  0.13384554  0.81483942  0.53552511     0.11100
H771        H  0.05746945  0.79949804  0.58493061     0.15600
H772        H  0.12606462  0.76719951  0.50802598     0.01400
H773        H  0.14866759  0.76798368  0.61432712     0.16000
H774        H  0.13783010  0.85468968  0.57194305     0.15700
C775        C  0.10249129  0.88210515  0.64874368     0.87500
C776        C  0.11538219  0.90593772  0.62244102    -0.52700
C777        C  0.12411875  0.93649742  0.63478446     0.10500
C778        C  0.11843944  0.94104952  0.67229228     0.21400
C779        C  0.12961480  0.88173274  0.67613384    -0.53400
C780        C  0.13810205  0.91289706  0.68808053     0.10600
C781        C  0.07399261  0.90087842  0.66487699    -0.53000
C782        C  0.08205399  0.93216158  0.67676924     0.11100
H783        H  0.11635671  0.89962890  0.59602549     0.15600
H784        H  0.12535155  0.96625424  0.68206556     0.01400
H785        H  0.14144608  0.85941381  0.68480692     0.16000
H786        H  0.04927939  0.89102896  0.66392389     0.15700
C787        C  0.88879064  0.02211369  0.58345769     0.87500
C788        C  0.91423743  0.03608211  0.55943977    -0.52700
C789        C  0.90253536  0.04131257  0.52803548     0.10500
C790        C  0.86642833  0.03213261  0.52332675     0.21400
C791        C  0.86059401  0.04718162  0.58218530    -0.53400
C792        C  0.84923977  0.05268925  0.55064759     0.10600
C793        C  0.87558002  0.99017274  0.56557220    -0.53000
C794        C  0.86417632  0.99544677  0.53366579     0.11100
H795        H  0.93930370  0.04142645  0.56675753     0.15600
H796        H  0.85707232  0.03679266  0.49767270     0.01400
H797        H  0.85173895  0.06076386  0.60399549     0.16000
H798        H  0.87662503  0.96579114  0.57660953     0.15700
C799        C  0.95756804  0.00650323  0.64681037     0.87500
C800        C  0.97332679  0.97550554  0.66161349    -0.52700
C801        C  0.00195358  0.98163504  0.67869888     0.10500
C802        C  0.01116436  0.01894405  0.68091239     0.21400
C803        C  0.95276025  0.03075309  0.67688350    -0.53400
C804        C  0.98115242  0.03751439  0.69427481     0.10600
C805        C  0.98499023  0.02260740  0.62663782    -0.53000
C806        C  0.01274854  0.02938679  0.64462995     0.11100
H807        H  0.96455447  0.95047048  0.65570442     0.15600
H808        H  0.03370642  0.02503927  0.69551073     0.01400
H809        H  0.93000033  0.04311666  0.68270117     0.16000
H810        H  0.98270361  0.02831976  0.60035762     0.15700
In811      In  0.24438798  0.44897941  0.67070862     1.36900
C812        C  0.20555970  0.39789412  0.66819593     0.78600
O813        O  0.26153469  0.43249251  0.62050744    -0.59800
O814        O  0.29479641  0.42715887  0.66173959    -0.50700
C815        C  0.24999192  0.50979987  0.65177992     0.71300
O816        O  0.22660672  0.49080780  0.64246488    -0.45600
C817        C  0.21612913  0.46965241  0.72670781     0.76000
O818        O  0.20309010  0.42156710  0.64788787    -0.57400
O819        O  0.24515826  0.45814201  0.72704293    -0.47500
O820        O  0.22955681  0.39954968  0.68853395    -0.53900
C821        C  0.28942968  0.42348184  0.63038956     0.86200
O822        O  0.27174271  0.49706895  0.67023184    -0.55800
O823        O  0.20260358  0.47062724  0.69824732    -0.59100
In824      In  0.23729741  0.64211526  0.50994019     1.36900
C825        C  0.19692962  0.63454007  0.45962516     0.78600
O826        O  0.19541688  0.66492940  0.53434362    -0.59800
O827        O  0.23553023  0.69702058  0.52183568    -0.50700
C828        C  0.24591543  0.61540985  0.56775175     0.71300
O829        O  0.22250222  0.60784992  0.54811235    -0.45600
C830        C  0.28605318  0.61481615  0.47858159     0.76000
O831        O  0.19765451  0.61462102  0.48367662    -0.57400
O832        O  0.28644826  0.64583964  0.48556685    -0.47500
O833        O  0.21774004  0.65798381  0.46107150    -0.53900
C834        C  0.20715760  0.69390231  0.53416399     0.86200
O835        O  0.26602293  0.63690028  0.55750446    -0.55800
O836        O  0.26157351  0.59868057  0.48827740    -0.59100
In837      In  0.03572275  0.63419039  0.33340777     1.36900
C838        C  0.09028805  0.63098498  0.36691245     0.78600
O839        O  0.05384164  0.58814292  0.30770197    -0.59800
O840        O  0.05148992  0.63188815  0.27855002    -0.50700
C841        C  0.97927028  0.60395472  0.33418997     0.71300
O842        O  0.00169558  0.59870273  0.35537523    -0.45600
C843        C  0.01602620  0.68910302  0.36615444     0.76000
O844        O  0.06684213  0.61086846  0.37110826    -0.57400
O845        O  0.02377831  0.68982676  0.33538210    -0.47500
O846        O  0.08584768  0.65260230  0.34477167    -0.53900
C847        C  0.05856335  0.60109306  0.27975563     0.86200
O848        O  0.98566571  0.62550604  0.31250058    -0.55800
O849        O  0.01799136  0.66088938  0.37906232    -0.59100
In850      In  0.03874152  0.28291187  0.69067669     1.36900
C851        C  0.98398302  0.28264683  0.65703754     0.78600
O852        O  0.05501682  0.25090655  0.64900114    -0.59800
O853        O  0.05368794  0.22927904  0.69745020    -0.50700
C854        C  0.09445552  0.31370896  0.68260181     0.71300
O855        O  0.07086428  0.31567132  0.66216176    -0.45600
C856        C  0.01652474  0.31693085  0.74249745     0.76000
O857        O  0.00629327  0.30403358  0.65304728    -0.57400
O858        O  0.02426501  0.28652738  0.74507999    -0.47500
O859        O  0.98941846  0.26143120  0.67929914    -0.53900
C860        C  0.05989936  0.22578579  0.66649538     0.86200
O861        O  0.08930989  0.29600411  0.70780331    -0.55800
O862        O  0.02041130  0.32912163  0.71413158    -0.59100
In863      In  0.85596291  0.26651919  0.49807749     1.36900
C864        C  0.85466056  0.29531659  0.44075891     0.78600
O865        O  0.90137532  0.24392548  0.47798004    -0.59800
O866        O  0.86120518  0.21088152  0.48604096    -0.50700
C867        C  0.88806932  0.27317943  0.55415073     0.71300
O868        O  0.89148301  0.29288845  0.53018253    -0.45600
C869        C  0.80338237  0.29894941  0.52050716     0.76000
O870        O  0.87607882  0.30174793  0.46305849    -0.57400
O871        O  0.80195588  0.26794721  0.51291388    -0.47500
O872        O  0.83399783  0.27284770  0.44747774    -0.53900
C873        C  0.89074262  0.21443984  0.47671905     0.86200
O874        O  0.86749903  0.24975919  0.54947244    -0.55800
O875        O  0.83107028  0.31220884  0.51686705    -0.59100
In876      In  0.84212461  0.45448640  0.31754755     1.36900
C877        C  0.84430419  0.39796022  0.34821703     0.78600
O878        O  0.81252665  0.47315226  0.35894709    -0.59800
O879        O  0.79023654  0.47196888  0.31017859    -0.50700
C880        C  0.87615841  0.50920427  0.32617682     0.71300
O881        O  0.87659646  0.48584694  0.34677424    -0.45600
C882        C  0.87308402  0.43116214  0.26508791     0.76000
O883        O  0.86414104  0.42160018  0.35404795    -0.57400
O884        O  0.84298466  0.43848615  0.26296679    -0.47500
O885        O  0.82197247  0.40360438  0.32702297    -0.53900
C886        C  0.78792996  0.47927795  0.34110794     0.86200
O887        O  0.85734141  0.50483715  0.30114393    -0.55800
O888        O  0.88644286  0.43637280  0.29313286    -0.59100
C889        C  0.82313243  0.32037206  0.39427200    -0.12300
C890        C  0.85314675  0.31477191  0.41042941     0.09800
C891        C  0.88092117  0.33283119  0.40138070    -0.12300
C892        C  0.87813267  0.35860998  0.37914151    -0.12300
C893        C  0.84757089  0.36657173  0.36555386     0.09800
C894        C  0.82034006  0.34633234  0.37174916    -0.12300
H895        H  0.80142912  0.30662901  0.40108562     0.13800
H896        H  0.90437748  0.32854944  0.41328492     0.13800
H897        H  0.89957965  0.37354323  0.37403085     0.13800
H898        H  0.79661378  0.35208160  0.36121044     0.13800
C899        C  0.93612746  0.25267681  0.63151369    -0.12300
C900        C  0.95484618  0.28188547  0.63565161     0.09800
C901        C  0.94819521  0.30939129  0.61587213    -0.12300
C902        C  0.92489539  0.30697824  0.59051415    -0.12300
C903        C  0.90785356  0.27704730  0.58461792     0.09800
C904        C  0.91262217  0.25026122  0.60599812    -0.12300
H905        H  0.94101435  0.23116777  0.64656633     0.13800
H906        H  0.96215170  0.33228007  0.61891822     0.13800
H907        H  0.92125616  0.32809448  0.57455522     0.13800
H908        H  0.89962646  0.22696065  0.60178804     0.13800
C909        C  0.92861315  0.58286360  0.30561799    -0.12300
C910        C  0.94871362  0.58483458  0.33422587     0.09800
C911        C  0.94149237  0.56530488  0.36182898    -0.12300
C912        C  0.91613953  0.54218401  0.35993523    -0.12300
C913        C  0.89771927  0.53820790  0.33036880     0.09800
C914        C  0.90317028  0.55956653  0.30368249    -0.12300
H915        H  0.93378184  0.59781519  0.28408185     0.13800
H916        H  0.95645996  0.56673754  0.38431762     0.13800
H917        H  0.91210716  0.52620784  0.38098061     0.13800
H918        H  0.88913497  0.55690590  0.28066660     0.13800
C919        C  0.15053533  0.60454058  0.43217421    -0.12300
C920        C  0.17249032  0.63146656  0.43279297     0.09800
C921        C  0.16905663  0.65676563  0.40943303    -0.12300
C922        C  0.14292557  0.65596849  0.38681555    -0.12300
C923        C  0.12003211  0.62987355  0.38740840     0.09800
C924        C  0.12445584  0.60376206  0.40963908    -0.12300
H925        H  0.15283389  0.58467175  0.44988628     0.13800
H926        H  0.18576554  0.67778088  0.40952016     0.13800
H927        H  0.13993481  0.67634995  0.36981470     0.13800
H928        H  0.10717906  0.58325693  0.41035010     0.13800
C929        C  0.13004489  0.34832712  0.64749296    -0.12300
C930        C  0.12529055  0.33144740  0.67739132     0.09800
C931        C  0.14931531  0.33327640  0.70263973    -0.12300
C932        C  0.17689490  0.35335195  0.69874022    -0.12300
C933        C  0.18056967  0.37179683  0.66961501     0.09800
C934        C  0.15745921  0.36842446  0.64366499    -0.12300
H935        H  0.11198518  0.34697669  0.62751172     0.13800
H936        H  0.14615393  0.32031803  0.72584811     0.13800
H937        H  0.19438354  0.35582806  0.71916868     0.13800
H938        H  0.15989329  0.38239592  0.62096294     0.13800
C939        C  0.28058162  0.55854007  0.63044193    -0.12300
C940        C  0.25119400  0.54410378  0.64087354     0.09800
C941        C  0.22151950  0.56005038  0.63484989    -0.12300
C942        C  0.22058640  0.58727941  0.61430467    -0.12300
C943        C  0.24927270  0.59847630  0.59936200     0.09800
C944        C  0.27961424  0.58592900  0.60947548    -0.12300
H945        H  0.30370155  0.54649281  0.63520412     0.13800
H946        H  0.19870848  0.54956839  0.64344646     0.13800
H947        H  0.19703699  0.59718482  0.60711153     0.13800
H948        H  0.30195987  0.59444954  0.59806274     0.13800
C949        C  0.90365797  0.01862838  0.61816442    -0.15400
C950        C  0.92906981  0.99822257  0.62330578    -0.30600
H951        H  0.89798870  0.03774620  0.63666403     0.13600
H952        H  0.93435437  0.97993865  0.60370964     0.14200
C953        C  0.05791254  0.95871003  0.68465738    -0.15400
C954        C  0.02525232  0.95395235  0.68424626    -0.30600
H955        H  0.06775929  0.98377654  0.68603633     0.13600
H956        H  0.01529253  0.92891954  0.68256346     0.14200
C957        C  0.16669718  0.73971216  0.55464003    -0.12200
C958        C  0.18790866  0.72091934  0.54622158    -0.13800
C959        C  0.11233353  0.82445994  0.62555300    -0.15400
C960        C  0.09175374  0.84978939  0.63130593    -0.30600
H961        H  0.13468562  0.82361436  0.64030596     0.13600
H962        H  0.07085929  0.85195599  0.61452154     0.14200
C963        C  0.86585003  0.93760143  0.50819944    -0.15400
C964        C  0.85493447  0.96923975  0.50812846    -0.30600
H965        H  0.87846803  0.92875706  0.53025693     0.13600
H966        H  0.84231101  0.97819086  0.48624730     0.14200
C967        C  0.99843233  0.73935695  0.40660562    -0.12200
C968        C  0.00607318  0.71784948  0.38626567    -0.13800
C969        C  0.92612726  0.82501874  0.46558906    -0.15400
C970        C  0.90808803  0.83743369  0.44048443    -0.30600
H971        H  0.92090599  0.83241125  0.49115415     0.13600
H972        H  0.91408821  0.82940889  0.41516324     0.14200
C973        C  0.02967129  0.78563761  0.51777554    -0.15400
C974        C  0.06040091  0.77424026  0.51647682    -0.30600
H975        H  0.02108599  0.79676274  0.54099414     0.13600
H976        H  0.06880885  0.76289251  0.49333950     0.14200
C977        C  0.03324609  0.86226305  0.39742916    -0.15400
C978        C  0.03941108  0.83918320  0.42060753    -0.30600
H979        H  0.00829639  0.86715640  0.38961107     0.13600
H980        H  0.06438433  0.83182204  0.42581574     0.14200
C981        C  0.91165687  0.95665208  0.41102623    -0.15400
C982        C  0.92993153  0.95224279  0.38377305    -0.30600
H983        H  0.90463862  0.98136687  0.41952502     0.13600
H984        H  0.93386041  0.92733523  0.37362701     0.14200
C985        C  0.04575677  0.95798521  0.34015471    -0.15400
C986        C  0.01566346  0.95670578  0.32627182    -0.30600
H987        H  0.05441138  0.98136197  0.35118955     0.13600
H988        H  0.00699794  0.93333746  0.31530116     0.14200
C989        C  0.93318279  0.16764324  0.45823944    -0.12200
C990        C  0.91201496  0.18744983  0.46599503    -0.13800
C991        C  0.94754419  0.07585896  0.50662066    -0.15400
C992        C  0.92223171  0.05496193  0.50082647    -0.30600
H993        H  0.95352026  0.08437722  0.53189237     0.13600
H994        H  0.91415979  0.04942107  0.47535063     0.14200
C995        C  0.99222526  0.07710199  0.39083299    -0.15400
C996        C  0.96838982  0.06925900  0.36844919    -0.30600
H997        H  0.01309852  0.06065159  0.39206160     0.13600
H998        H  0.94592634  0.08341668  0.36971263     0.14200
C999        C  0.17070662  0.85505320  0.50971217    -0.15400
C1000       C  0.14797428  0.83113227  0.50663958    -0.30600
H1001       H  0.18025476  0.86268583  0.53413968     0.13600
H1002       H  0.14119077  0.82111082  0.48208584     0.14200
C1003       C  0.17204824  0.88710490  0.38995430    -0.15400
C1004       C  0.14645156  0.90798474  0.38806838    -0.30600
H1005       H  0.17430723  0.86687632  0.37176911     0.13600
H1006       H  0.14448240  0.92692278  0.40775518     0.14200
C1007       C  0.13751313  0.96316328  0.61421300    -0.15400
C1008       C  0.15552102  0.95678953  0.58694496    -0.30600
H1009       H  0.13466558  0.98861296  0.62335246     0.13600
H1010       H  0.16167199  0.93140353  0.57982325     0.14200
C1011       C  0.21179120  0.97257121  0.49165442    -0.15400
C1012       C  0.22668234  0.94282736  0.49288077    -0.30600
H1013       H  0.19931888  0.97959392  0.46883795     0.13600
H1014       H  0.23937003  0.93617394  0.51566141     0.14200
C1015       C  0.07144865  0.19570200  0.65090560    -0.12200
C1016       C  0.07969819  0.17357768  0.63204757    -0.13800
C1017       C  0.03656543  0.07339483  0.61158625    -0.15400
C1018       C  0.04099141  0.04726162  0.63127802    -0.30600
H1019       H  0.01195351  0.08170448  0.60590185     0.13600
H1020       H  0.06521328  0.04074953  0.64017294     0.14200
C1021       C  0.04355104  0.12830180  0.49301769    -0.15400
C1022       C  0.04148533  0.13510699  0.52599037    -0.30600
H1023       H  0.06703932  0.12133287  0.48280821     0.13600
H1024       H  0.01803368  0.14194146  0.53620922     0.14200
C1025       C  0.16181936  0.07308089  0.54732110    -0.15400
C1026       C  0.15141133  0.09069858  0.57419838    -0.30600
H1027       H  0.14915613  0.07585661  0.52361573     0.13600
H1028       H  0.16305518  0.08573057  0.59809934     0.14200
C1029       C  0.27806152  0.81012067  0.46832240    -0.12200
C1030       C  0.25919173  0.83099855  0.45851807    -0.13800
C1031       C  0.43000035  0.80020187  0.42928898    -0.12300
C1032       C  0.41084536  0.77123928  0.43081162     0.09800
C1033       C  0.41364054  0.74650191  0.40571383    -0.12300
C1034       C  0.43661362  0.74996575  0.38041450    -0.12300
C1035       C  0.45687514  0.77826871  0.37993124     0.09800
C1036       C  0.45277316  0.80371509  0.40402863    -0.12300
H1037       H  0.42802439  0.81977844  0.44817142     0.13800
H1038       H  0.39900357  0.72398120  0.40637658     0.13800
H1039       H  0.43945841  0.72996465  0.36213478     0.13800
H1040       H  0.46804042  0.82584230  0.40411925     0.13800
C1041       C  0.26399488  0.99107184  0.62877363    -0.12200
C1042       C  0.24601610  0.00181976  0.60719324    -0.04200
C1043       C  0.30430633  0.83970494  0.63406641    -0.12300
C1044       C  0.33266683  0.85400517  0.64833642     0.09800
C1045       C  0.36297969  0.83890104  0.64322777    -0.12300
C1046       C  0.36568145  0.81262455  0.62044150    -0.12300
C1047       C  0.33808891  0.80125609  0.60255667     0.09800
C1048       C  0.30703113  0.81316950  0.61105976    -0.12300
H1049       H  0.28073999  0.85120578  0.63783465     0.13800
H1050       H  0.38503026  0.84943274  0.65450097     0.13800
H1051       H  0.38976730  0.80338417  0.61441168     0.13800
H1052       H  0.28550463  0.80462736  0.59731699     0.13800
C1053       C  0.80375196  0.92163629  0.37273595    -0.12200
C1054       C  0.82179671  0.91088495  0.39405373    -0.13800
C1055       C  0.66799342  0.86066440  0.29796556    -0.12300
C1056       C  0.67090044  0.88469530  0.32382726     0.09800
C1057       C  0.65003814  0.88327382  0.35131348    -0.12300
C1058       C  0.62541453  0.85939228  0.35213608    -0.12300
C1059       C  0.62120065  0.83653136  0.32547493     0.09800
C1060       C  0.64318512  0.83664218  0.29877844    -0.12300
H1061       H  0.68393885  0.86131065  0.27655419     0.13800
H1062       H  0.65203785  0.90134054  0.37172694     0.13800
H1063       H  0.60892881  0.85960060  0.37314312     0.13800
H1064       H  0.64033704  0.81916433  0.27795847     0.13800
C1065       C  0.82658160  0.07904598  0.54305506    -0.12200
C1066       C  0.80693454  0.09978507  0.53495122    -0.13800
C1067       C  0.76484145  0.09717565  0.39532721    -0.12300
C1068       C  0.73447985  0.10801484  0.40719226     0.09800
C1069       C  0.70562905  0.09659853  0.39165671    -0.12300
C1070       C  0.70677007  0.07128771  0.36765975    -0.12300
C1071       C  0.73675842  0.05707804  0.35911088     0.09800
C1072       C  0.76599153  0.07153836  0.37115989    -0.12300
H1073       H  0.78733620  0.10581911  0.40722124     0.13800
H1074       H  0.68204095  0.10508863  0.40028744     0.13800
H1075       H  0.68400680  0.06077535  0.35803032     0.13800
H1076       H  0.78933435  0.06082459  0.36463411     0.13800
C1077       C  0.44630900  0.04738797  0.64480970    -0.12300
C1078       C  0.44995111  0.07236415  0.66955473     0.09800
C1079       C  0.42642461  0.07566823  0.69466490    -0.12300
C1080       C  0.40069001  0.05284172  0.69620281    -0.12300
C1081       C  0.39832308  0.02660434  0.67261107     0.09800
C1082       C  0.42065888  0.02468769  0.64631234    -0.12300
H1083       H  0.46401369  0.04455561  0.62503498     0.13800
H1084       H  0.42874945  0.09489395  0.71393822     0.13800
H1085       H  0.38361197  0.05480822  0.71663268     0.13800
H1086       H  0.41913042  0.00480186  0.62764574     0.13800
C1087       C  0.64163446  0.15647801  0.62868746    -0.12300
C1088       C  0.62218189  0.12755190  0.62824549     0.09800
C1089       C  0.63033039  0.10067326  0.60717425    -0.12300
C1090       C  0.65568659  0.10369620  0.58465320    -0.12300
C1091       C  0.67322718  0.13365898  0.58284204     0.09800
C1092       C  0.66713684  0.15953248  0.60599601    -0.12300
H1093       H  0.63580439  0.17745150  0.64492819     0.13800
H1094       H  0.61595614  0.07793157  0.60679778     0.13800
H1095       H  0.66031807  0.08322517  0.56733460     0.13800
H1096       H  0.68052226  0.18282418  0.60504943     0.13800
C1097       C  0.57431784  0.05921080  0.77932477    -0.12200
C1098       C  0.56557632  0.07833666  0.75816337    -0.13800
C1099       C  0.65045622  0.00456667  0.86152797    -0.15400
C1100       C  0.66628728  0.03094544  0.87586345    -0.30600
H1101       H  0.65776995  0.97946545  0.86697013     0.13600
H1102       H  0.65807723  0.05562989  0.86925413     0.14200
C1103       C  0.71780073  0.96087002  0.00316555    -0.15400
C1104       C  0.71064055  0.96266872  0.97039185    -0.30600
H1105       H  0.72728783  0.98273452  0.01632253     0.13600
H1106       H  0.70180841  0.94054514  0.95706248     0.14200
C1107       C  0.64553640  0.83316770  0.05718468    -0.15400
C1108       C  0.65750422  0.85365158  0.03378149    -0.30600
H1109       H  0.65638152  0.83499602  0.08208647     0.13600
H1110       H  0.64603496  0.85414018  0.00925082     0.14200
C1111       C  0.54282102  0.79706879  0.99178840    -0.15400
C1112       C  0.51353323  0.78164140  0.99093476    -0.30600
H1113       H  0.55045969  0.81118468  0.97036506     0.13600
H1114       H  0.50642259  0.76733599  0.01236598     0.14200
C1115       C  0.38613115  0.91838422  0.76896436    -0.12200
C1116       C  0.40716769  0.90993529  0.78868156    -0.13800
C1117       C  0.47854099  0.84445557  0.87011109    -0.15400
C1118       C  0.45491319  0.82582468  0.88367645    -0.30600
H1119       H  0.50322719  0.84298228  0.88007099     0.13600
H1120       H  0.43010492  0.82939157  0.87451033     0.14200
C1121       C  0.51533199  0.95001811  0.81312298    -0.15400
C1122       C  0.54750357  0.94848889  0.82036435    -0.30600
H1123       H  0.50517093  0.97293827  0.80405554     0.13600
H1124       H  0.55773215  0.92539984  0.82906305     0.14200
C1125       C  0.40470947  0.86225419  0.00276379    -0.15400
C1126       C  0.42483863  0.83617636  0.00425129    -0.30600
H1127       H  0.39607032  0.87121654  0.97889259     0.13600
H1128       H  0.43072132  0.82542078  0.02820092     0.14200
C1129       C  0.41433930  0.95368492  0.90802176    -0.15400
C1130       C  0.43535448  0.95904455  0.88326174    -0.30600
H1131       H  0.40540391  0.92875481  0.91284552     0.13600
H1132       H  0.44137004  0.98421587  0.87597051     0.14200
C1133       C  0.36385896  0.95963586  0.03095451    -0.15400
C1134       C  0.35585116  0.96136368  0.99821731    -0.30600
H1135       H  0.37510172  0.98111823  0.04338847     0.13600
H1136       H  0.34436653  0.94006268  0.98586040     0.14200
C1137       C  0.54266586  0.06642111  0.90169684    -0.15400
C1138       C  0.53570945  0.04266084  0.87858512    -0.30600
H1139       H  0.56782183  0.07413259  0.90625710     0.13600
H1140       H  0.51055210  0.03738376  0.87126100     0.14200
C1141       C  0.42980142  0.08904347  0.94475846    -0.15400
C1142       C  0.42202743  0.06407171  0.96540976    -0.30600
H1143       H  0.41289170  0.09453965  0.92460461     0.13600
H1144       H  0.44006019  0.05794729  0.98439749     0.14200
C1145       C  0.49787034  0.84972014  0.21888526    -0.12200
C1146       C  0.50558068  0.82930376  0.23943028    -0.13800
C1147       C  0.52992361  0.84901960  0.09288936    -0.15400
C1148       C  0.53634783  0.86958691  0.11922944    -0.30600
H1149       H  0.50486283  0.84252159  0.08625340     0.13600
H1150       H  0.56134197  0.87334930  0.12791872     0.14200
C1151       C  0.42285704  0.91171525  0.14014500    -0.15400
C1152       C  0.40534094  0.88715277  0.12499309    -0.30600
H1153       H  0.41665499  0.93742813  0.13608567     0.13600
H1154       H  0.41199681  0.86167485  0.13039713     0.14200
C1155       C  0.63749082  0.08025923  0.99699964    -0.15400
C1156       C  0.65949562  0.05568232  0.99848196    -0.30600
H1157       H  0.63042480  0.09023023  0.97301640     0.13600
H1158       H  0.66906070  0.04778000  0.02237936     0.14200
C1159       C  0.54465601  0.12759978  0.02176935    -0.15400
C1160       C  0.54259022  0.13564301  0.98925338    -0.30600
H1161       H  0.52360001  0.11615940  0.03330367     0.13600
H1162       H  0.56358697  0.14705041  0.97783105     0.14200
C1163       C  0.66464538  0.00686087  0.21417103    -0.12200
C1164       C  0.68522785  0.99858221  0.23425472    -0.13800
C1165       C  0.64026805  0.95787349  0.11766506    -0.15400
C1166       C  0.66073992  0.96392023  0.09272967    -0.30600
H1167       H  0.63490090  0.93250006  0.12479571     0.13600
H1168       H  0.66903739  0.98909079  0.08798996     0.14200
C1169       C  0.56010080  0.96032695  0.18379545    -0.15400
C1170       C  0.52732796  0.96220813  0.18233848    -0.30600
H1171       H  0.57136468  0.93621052  0.18626486     0.13600
H1172       H  0.51610762  0.98643324  0.18020470     0.14200
C1173       C  0.61611188  0.09141566  0.11964872    -0.15400
C1174       C  0.59332211  0.07101300  0.13279121    -0.30600
H1175       H  0.64127596  0.08809954  0.12780530     0.13600
H1176       H  0.56822039  0.07234704  0.12407684     0.14200
C1177       C  0.17996202  0.48963839  0.77813571    -0.12200
C1178       C  0.19848118  0.48064233  0.75619653    -0.13800
C1179       C  0.12571587  0.56767676  0.86232277    -0.15400
C1180       C  0.10139714  0.57405914  0.88424907    -0.30600
H1181       H  0.14808318  0.58225337  0.86458038     0.13600
H1182       H  0.08075108  0.55697258  0.88434559     0.14200
C1183       C  0.04760293  0.62403166  0.98526539    -0.15400
C1184       C  0.04970596  0.62568784  0.01902692    -0.30600
H1185       H  0.02379216  0.62140173  0.97332236     0.13600
H1186       H  0.07343635  0.62826573  0.03102992     0.14200
C1187       C  0.93940932  0.57795556  0.05077879    -0.15400
C1188       C  0.91289736  0.57472072  0.07022993    -0.30600
H1189       H  0.94307423  0.55876903  0.03165313     0.13600
H1190       H  0.90952120  0.59236859  0.09077416     0.14200
C1191       C  0.99751530  0.35860625  0.78991657    -0.12200
C1192       C  0.00482381  0.33742311  0.76958145    -0.13800
C1193       C  0.04205353  0.46562056  0.82768131    -0.15400
C1194       C  0.07288222  0.45993713  0.81731750    -0.30600
H1195       H  0.03524977  0.49049419  0.83573111     0.13600
H1196       H  0.07980421  0.43511231  0.80935625     0.14200
C1197       C  0.91298246  0.40450070  0.88479903    -0.15400
C1198       C  0.93857501  0.42526849  0.87996648    -0.30600
H1199       H  0.91004708  0.38249745  0.86884154     0.13600
H1200       H  0.94242796  0.44542495  0.89814918     0.14200
C1201       C  0.87195762  0.46857703  0.98582651    -0.15400
C1202       C  0.85794036  0.46977005  0.01608369    -0.30600
H1203       H  0.88595624  0.48989225  0.97766626     0.13600
H1204       H  0.84380459  0.44846167  0.02389972     0.14200
C1205       C  0.04840855  0.37081554  0.88352676    -0.15400
C1206       C  0.04298689  0.34773535  0.90665335    -0.30600
H1207       H  0.07270852  0.37417513  0.87347981     0.13600
H1208       H  0.01821387  0.34185768  0.91410983     0.14200
C1209       C  0.94125290  0.34485995  0.99751473    -0.15400
C1210       C  0.92219947  0.37139808  0.00337995    -0.30600
H1211       H  0.94347187  0.33459775  0.97231789     0.13600
H1212       H  0.91688509  0.37960985  0.02875870     0.14200
C1213       C  0.02678569  0.28221374  0.99852002    -0.15400
C1214       C  0.05913052  0.28912554  0.99853268    -0.30600
H1215       H  0.01497333  0.27370734  0.97554791     0.13600
H1216       H  0.07112850  0.29698236  0.02169439     0.14200
C1217       C  0.91332876  0.40920684  0.21938273    -0.12200
C1218       C  0.89210378  0.41811537  0.23809374    -0.13800
C1219       C  0.91483299  0.45611288  0.10546360    -0.15400
C1220       C  0.93765676  0.45930897  0.12947242    -0.30600
H1221       H  0.90537141  0.43169700  0.09810354     0.13600
H1222       H  0.94443892  0.48376390  0.13943336     0.14200
C1223       C  0.97537811  0.34114854  0.13612553    -0.15400
C1224       C  0.99484616  0.33757947  0.10928908    -0.30600
H1225       H  0.95670835  0.32254796  0.14048914     0.13600
H1226       H  0.01284063  0.35708533  0.10531999     0.14200
C1227       C  0.17916351  0.45615645  0.90553175    -0.15400
C1228       C  0.15888258  0.45044744  0.87944232    -0.30600
H1229       H  0.18880531  0.48093979  0.91087279     0.13600
H1230       H  0.15217558  0.42515266  0.87199077     0.14200
C1231       C  0.17269520  0.34504271  0.95907418    -0.15400
C1232       C  0.15998977  0.32548673  0.93425626    -0.30600
H1233       H  0.16221717  0.34412848  0.98381720     0.13600
H1234       H  0.17005145  0.32833978  0.90943573     0.14200
C1235       C  0.13697627  0.57105692  0.00481351    -0.15400
C1236       C  0.15637839  0.54433640  0.00363328    -0.30600
H1237       H  0.13226748  0.58343859  0.02865308     0.13600
H1238       H  0.16391340  0.53379261  0.97976848     0.14200
C1239       C  0.21204293  0.45352757  0.03170735    -0.15400
C1240       C  0.22730967  0.45130058  0.00192927    -0.30600
H1241       H  0.19956907  0.43196061  0.04138159     0.13600
H1242       H  0.24040229  0.47278164  0.99293916     0.14200
C1243       C  0.08003270  0.56093792  0.23074344    -0.12200
C1244       C  0.07086359  0.58110685  0.25179878    -0.13800
C1245       C  0.04602236  0.56859143  0.11140199    -0.15400
C1246       C  0.03865894  0.54365914  0.13203837    -0.30600
H1247       H  0.07110441  0.57730957  0.10955247     0.13600
H1248       H  0.01343323  0.53703917  0.13695161     0.14200
C1249       C  0.05232234  0.44782484  0.18652507    -0.15400
C1250       C  0.02054600  0.44875955  0.19434091    -0.30600
H1251       H  0.06238961  0.42474554  0.17673054     0.13600
H1252       H  0.01060658  0.47170630  0.20444221     0.14200
C1253       C  0.16628247  0.52718768  0.12679375    -0.15400
C1254       C  0.15250291  0.50245850  0.14413476    -0.30600
H1255       H  0.15824691  0.55242683  0.13232030     0.13600
H1256       H  0.16005784  0.47701574  0.13962940     0.14200
C1257       C  0.51348050  0.18344136  0.86154484    -0.12200
C1258       C  0.50489196  0.16399599  0.88241416    -0.13800
C1259       C  0.28143134  0.40780862  0.87245815    -0.12200
C1260       C  0.26376700  0.40075368  0.89550206    -0.13800
C1261       C  0.43331420  0.31228502  0.79459380    -0.12300
C1262       C  0.45589356  0.31233939  0.82123474     0.09800
C1263       C  0.45152320  0.33389491  0.84878950    -0.12300
C1264       C  0.42688052  0.35737695  0.84827550    -0.12300
C1265       C  0.40621982  0.35948565  0.82027674     0.09800
C1266       C  0.40843604  0.33581658  0.79414846    -0.12300
H1267       H  0.43620486  0.29566957  0.77318070     0.13800
H1268       H  0.46838755  0.33402530  0.86984925     0.13800
H1269       H  0.42518428  0.37509602  0.86896117     0.13800
H1270       H  0.39252256  0.33699157  0.77241041     0.13800
C1271       C  0.40889113  0.73974962  0.95614218    -0.12200
C1272       C  0.38921126  0.71878098  0.96347191    -0.13800
C1273       C  0.24771814  0.56890859  0.04584327    -0.12200
C1274       C  0.26608719  0.58810591  0.03280187    -0.13800
C1275       C  0.31772096  0.57697117  0.88138471    -0.12300
C1276       C  0.34617665  0.58699698  0.89879846     0.09800
C1277       C  0.37648666  0.57419775  0.88919309    -0.12300
C1278       C  0.37798937  0.54869430  0.86540962    -0.12300
C1279       C  0.34920549  0.53574800  0.85087497     0.09800
C1280       C  0.31924226  0.55126695  0.85735069    -0.12300
H1281       H  0.29412496  0.58669696  0.88849386     0.13800
H1282       H  0.39879795  0.58207931  0.90197170     0.13800
H1283       H  0.40142333  0.53742287  0.86026356     0.13800
H1284       H  0.29678235  0.54159690  0.84621692     0.13800
C1285       C  0.82755017  0.35535748  0.96005504    -0.12200
C1286       C  0.80742814  0.33464355  0.96814882    -0.13800
C1287       C  0.65656011  0.17743609  0.04017386    -0.12200
C1288       C  0.67625454  0.19784462  0.03036105    -0.13800
C1289       C  0.65231891  0.24945072  0.86288426    -0.12300
C1290       C  0.63106956  0.27633712  0.85887760     0.09800
C1291       C  0.63702297  0.30628327  0.87649216    -0.12300
C1292       C  0.66156496  0.30822277  0.90058640    -0.12300
C1293       C  0.68048628  0.28023564  0.90740456     0.09800
C1294       C  0.67706883  0.25139573  0.88722265    -0.12300
H1295       H  0.64812866  0.22618916  0.84930672     0.13800
H1296       H  0.62127874  0.32754957  0.87325892     0.13800
H1297       H  0.66421423  0.33093306  0.91547341     0.13800
H1298       H  0.69159901  0.22958558  0.89208384     0.13800
C1299       C  0.56616883  0.75025507  0.10221728    -0.12200
C1300       C  0.55797372  0.72950092  0.12218228    -0.13800
C1301       C  0.42537910  0.60179097  0.07089516    -0.12300
C1302       C  0.39924495  0.62408074  0.07227407     0.09800
C1303       C  0.39702860  0.64698371  0.09907452    -0.12300
C1304       C  0.42213603  0.64939409  0.12276097    -0.12300
C1305       C  0.44955464  0.62890363  0.11975522     0.09800
C1306       C  0.45042529  0.60420803  0.09450570    -0.12300
H1307       H  0.42745170  0.58378699  0.05050769     0.13800
H1308       H  0.37690266  0.66427201  0.10065033     0.13800
H1309       H  0.42090445  0.66838744  0.14230876     0.13800
H1310       H  0.47124009  0.58789561  0.09194196     0.13800
C1311       C  0.80230160  0.50145990  0.14291794    -0.12200
C1312       C  0.82359127  0.50896724  0.12368275    -0.13800
C1313       C  0.74371384  0.35905811  0.13209225    -0.12300
C1314       C  0.71634947  0.37979855  0.13430436     0.09800
C1315       C  0.68892238  0.37327665  0.11392765    -0.12300
C1316       C  0.69002354  0.34857649  0.08926729    -0.12300
C1317       C  0.71857959  0.33011106  0.08463961     0.09800
C1318       C  0.74484195  0.33419818  0.10721562    -0.12300
H1319       H  0.76502543  0.36361339  0.14785298     0.13800
H1320       H  0.66731152  0.38859243  0.11569664     0.13800
H1321       H  0.66922401  0.34533598  0.07250279     0.13800
H1322       H  0.76700438  0.31995213  0.10413322     0.13800
C1323       C  0.66330604  0.57474575  0.20627778    -0.12300
C1324       C  0.66840740  0.55299030  0.17893489     0.09800
C1325       C  0.65149462  0.55782784  0.14883338    -0.12300
C1326       C  0.62741274  0.58177985  0.14702844    -0.12300
C1327       C  0.61978313  0.60120678  0.17532611     0.09800
C1328       C  0.63894623  0.59889023  0.20447521    -0.12300
H1329       H  0.67636254  0.57151243  0.22965537     0.13800
H1330       H  0.65552296  0.54177227  0.12719489     0.13800
H1331       H  0.61331742  0.58359533  0.12406853     0.13800
H1332       H  0.63345493  0.61382697  0.22652502     0.13800
C1333       C  0.31311214  0.41068567  0.60662983    -0.12200
C1334       C  0.33115614  0.40222297  0.58405424    -0.13800
C1335       C  0.49432098  0.22761488  0.60493034    -0.12200
C1336       C  0.50144328  0.20633469  0.62457941    -0.13800
C1337       C  0.42859928  0.31688780  0.55201562    -0.15400
C1338       C  0.41779889  0.33367870  0.52536441    -0.30600
H1339       H  0.41776008  0.32291483  0.57607716     0.13600
H1340       H  0.42810089  0.32872606  0.50093968     0.14200
C1341       C  0.67088833  0.42694785  0.26515964    -0.12200
C1342       C  0.65065402  0.41574559  0.28373580    -0.13800
C1343       C  0.67238385  0.22719549  0.46991546    -0.12200
C1344       C  0.65186598  0.24620250  0.45985833    -0.13800
C1345       C  0.54019788  0.28810643  0.47502031    -0.15400
C1346       C  0.53788886  0.27196042  0.50405076    -0.30600
H1347       H  0.51917722  0.30144420  0.46562037     0.13600
H1348       H  0.55894652  0.25839397  0.51293679     0.14200
C1349       C  0.60979588  0.32731343  0.37747567    -0.15400
C1350       C  0.58532071  0.34253775  0.36108593    -0.30600
H1351       H  0.63468749  0.33404410  0.37100927     0.13600
H1352       H  0.56012645  0.33654161  0.36648559     0.14200
C1353       C  0.32942297  0.57758815  0.44880577    -0.12200
C1354       C  0.31130505  0.59775785  0.46101125    -0.13800
C1355       C  0.35941890  0.46638910  0.47478741    -0.15400
C1356       C  0.37254000  0.43587250  0.47268723    -0.30600
H1357       H  0.34668497  0.47369093  0.49734866     0.13600
H1358       H  0.38531890  0.42855897  0.45008151     0.14200
C1359       C  0.48960361  0.57980821  0.27837664    -0.12200
C1360       C  0.49669606  0.59995052  0.25744784    -0.13800
C1361       C  0.54018373  0.47716667  0.30862711    -0.15400
C1362       C  0.53775763  0.44371878  0.30882576    -0.30600
H1363       H  0.56393601  0.48904641  0.30771521     0.13600
H1364       H  0.51378946  0.43204538  0.30884753     0.14200
C1365       C  0.43540657  0.50582716  0.36577802    -0.15400
C1366       C  0.40806305  0.52337539  0.37118614    -0.30600
H1367       H  0.44155512  0.48701360  0.38389676     0.13600
H1368       H  0.40144538  0.54289749  0.35415849     0.14200
C1369       C  0.41850434  0.47850047  0.70383066    -0.12200
C1370       C  0.39914469  0.46971307  0.72478967    -0.13800
C1371       C  0.44042200  0.44305598  0.60047067    -0.15400
C1372       C  0.42139444  0.44934316  0.57375807    -0.30600
H1373       H  0.44494622  0.41752288  0.60742100     0.13600
H1374       H  0.41382275  0.47454035  0.56860171     0.14200
C1375       C  0.42468182  0.65891271  0.55281183    -0.12200
C1376       C  0.40332121  0.67826890  0.54540142    -0.13800
C1377       C  0.44577290  0.57428291  0.49028583    -0.15400
C1378       C  0.42194099  0.55161662  0.49273420    -0.30600
H1379       H  0.45123669  0.58532808  0.46643622     0.13600
H1380       H  0.41404504  0.54353231  0.51712259     0.14200
C1381       C  0.49555645  0.56780930  0.60393953    -0.15400
C1382       C  0.47564245  0.55992475  0.62940772    -0.30600
H1383       H  0.51429173  0.54989096  0.59729252     0.13600
H1384       H  0.45603295  0.57667164  0.63612434     0.14200
C1385       C  0.58194381  0.67856775  0.39159742    -0.12200
C1386       C  0.57314209  0.69929986  0.37184428    -0.13800
C1387       C  0.53971497  0.58226130  0.40054112    -0.15400
C1388       C  0.54381189  0.56352936  0.37266273    -0.30600
H1389       H  0.51538021  0.58739883  0.40977048     0.13600
H1390       H  0.56784322  0.56141593  0.36161044     0.14200
C1391       C  0.56090617  0.62737577  0.50211927    -0.15400
C1392       C  0.52964028  0.63716136  0.50442414    -0.30600
H1393       H  0.57203960  0.61480034  0.52302687     0.13600
H1394       H  0.51862260  0.64993090  0.48362252     0.14200
C1395       C  0.75963466  0.49315608  0.35642742    -0.12200
C1396       C  0.73963512  0.50185828  0.37652789    -0.13800
C1397       C  0.64622409  0.45375681  0.40029284    -0.15400
C1398       C  0.62292564  0.45993379  0.37758639    -0.30600
H1399       H  0.65401223  0.42837658  0.40438810     0.13600
H1400       H  0.61785423  0.48530656  0.37041383     0.14200
C1401       C  0.66497851  0.56533677  0.45485116    -0.15400
C1402       C  0.65723819  0.59019715  0.43386528    -0.30600
H1403       H  0.65086434  0.56285629  0.47746491     0.13600
H1404       H  0.66877422  0.59050372  0.40958808     0.14200
C1405       C  0.75607044  0.33983940  0.54085606    -0.12200
C1406       C  0.77599226  0.31900667  0.53212921    -0.13800
C1407       C  0.63642063  0.34267104  0.49853934    -0.15400
C1408       C  0.66208208  0.36337617  0.49471366    -0.30600
H1409       H  0.62874715  0.33587575  0.52337450     0.13600
H1410       H  0.67195053  0.36739141  0.47004893     0.14200
C1411       C  0.72104739  0.45432316  0.51307656    -0.15400
C1412       C  0.71657156  0.45281679  0.47979538    -0.30600
H1413       H  0.72185486  0.47849767  0.52567856     0.13600
H1414       H  0.71558705  0.42867987  0.46721709     0.14200
C1415       C  0.57124591  0.32012099  0.73296897    -0.12200
C1416       C  0.58010808  0.34078663  0.71346165    -0.13800
C1417       C  0.53924915  0.35089234  0.61694837    -0.15400
C1418       C  0.54275775  0.32469605  0.59615794    -0.30600
H1419       H  0.51513712  0.35958127  0.62376960     0.13600
H1420       H  0.56675174  0.31413376  0.59204985     0.14200
C1421       C  0.55635202  0.44964674  0.66168713    -0.15400
C1422       C  0.52472444  0.44920258  0.67134918    -0.30600
H1423       H  0.56576079  0.47148337  0.64939599     0.13600
H1424       H  0.51526655  0.42755299  0.68362933     0.14200
C1425       C  0.65714715  0.37986511  0.62825836    -0.15400
C1426       C  0.67415532  0.40405783  0.61352536    -0.30600
H1427       H  0.66335014  0.35428457  0.62173923     0.13600
H1428       H  0.66937796  0.42982351  0.62016753     0.14200
C1429       C  0.18463547  0.92921248  0.73279244    -0.12200
C1430       C  0.16468342  0.91987768  0.71182886    -0.13800
C1431       C  0.30836474  0.00507669  0.87219043    -0.12200
C1432       C  0.32834368  0.01216755  0.89403497    -0.13800
C1433       C  0.17411345  0.68878740  0.96296165    -0.12200
C1434       C  0.15573702  0.66626893  0.95459370    -0.13800
C1435       C  0.29511875  0.82657064  0.03958812    -0.12200
C1436       C  0.31479930  0.84697247  0.05007020    -0.13800
C1437       C  0.24625110  0.83466485  0.89626354    -0.12300
C1438       C  0.21784295  0.83062473  0.91518201     0.09800
C1439       C  0.19088169  0.85108063  0.90945434    -0.12300
C1440       C  0.19293099  0.87663259  0.88681164    -0.12300
C1441       C  0.22197191  0.88218066  0.86947026     0.09800
C1442       C  0.24829857  0.86039014  0.87340437    -0.12300
H1443       H  0.26736467  0.81914175  0.90039356     0.13800
H1444       H  0.16862234  0.84828363  0.92356565     0.13800
H1445       H  0.17214903  0.89289019  0.88387990     0.13800
H1446       H  0.27090426  0.86425950  0.86016189     0.13800
C1447       C  0.00211527  0.66711587  0.12049981    -0.12200
C1448       C  0.00943007  0.68881511  0.14095154    -0.13800
C1449       C  0.07602085  0.84622138  0.29929090    -0.12200
C1450       C  0.06843593  0.82578273  0.27761598    -0.13800
C1451       C  0.14415319  0.75651316  0.13429551    -0.12300
C1452       C  0.12237890  0.78314670  0.13762939     0.09800
C1453       C  0.12472840  0.81009909  0.11610481    -0.12300
C1454       C  0.14654707  0.80916282  0.08979895    -0.12300
C1455       C  0.16646028  0.78134775  0.08474674     0.09800
C1456       C  0.16620508  0.75564087  0.10790960    -0.12300
H1457       H  0.14270794  0.73547764  0.15068847     0.13800
H1458       H  0.10838312  0.83107994  0.11840738     0.13800
H1459       H  0.14678980  0.82956746  0.07255726     0.13800
H1460       H  0.18164607  0.73409091  0.10454312     0.13800
C1461       C  0.98504922  0.06479914  0.71840259    -0.12200
C1462       C  0.99310925  0.08647264  0.73842233    -0.13800
C1463       C  0.06593165  0.22575890  0.86458116    -0.12200
C1464       C  0.07624099  0.24676619  0.88424650    -0.13800
C1465       C  0.12603358  0.07612592  0.84941990    -0.12300
C1466       C  0.11878131  0.09383694  0.82052882     0.09800
C1467       C  0.13957006  0.09145146  0.79290513    -0.12300
C1468       C  0.16584356  0.06938531  0.79333892    -0.12300
C1469       C  0.17136120  0.04975010  0.82141709     0.09800
C1470       C  0.15207798  0.05428708  0.84985864    -0.12300
H1471       H  0.11065103  0.07797221  0.87124285     0.13800
H1472       H  0.13441954  0.10508633  0.77042555     0.13800
H1473       H  0.18051974  0.06623344  0.77114610     0.13800
H1474       H  0.15613105  0.03973033  0.87197515     0.13800
C1475       C  0.76857663  0.91394662  0.12523157    -0.12200
C1476       C  0.74845443  0.90688838  0.10387994    -0.13800
C1477       C  0.91203555  0.99365219  0.28443169    -0.12200
C1478       C  0.89265010  0.98468218  0.26303808    -0.13800
C1479       C  0.90467538  0.84685278  0.20289693    -0.12300
C1480       C  0.90179602  0.86673298  0.17460045     0.09800
C1481       C  0.92268813  0.86148886  0.14752335    -0.12300
C1482       C  0.94797454  0.83879224  0.14984117    -0.12300
C1483       C  0.95271838  0.82105881  0.17927128     0.09800
C1484       C  0.93010992  0.82403430  0.20523002    -0.12300
H1485       H  0.88869738  0.85050436  0.22404420     0.13800
H1486       H  0.92064046  0.87627793  0.12529226     0.13800
H1487       H  0.96488701  0.83646320  0.12928826     0.13800
H1488       H  0.93333264  0.81043137  0.22808789     0.13800
C1489       C  0.76967923  0.09921290  0.96805448    -0.12200
C1490       C  0.75044590  0.07900175  0.95617313    -0.13800
C1491       C  0.90329613  0.22965452  0.03943106    -0.12200
C1492       C  0.92446983  0.25004567  0.04645384    -0.13800
C1493       C  0.90268387  0.16205880  0.89875329    -0.12300
C1494       C  0.90134432  0.13662612  0.92217089     0.09800
C1495       C  0.92256183  0.10953576  0.91935283    -0.12300
C1496       C  0.94661378  0.10918435  0.89519581    -0.12300
C1497       C  0.94969072  0.13584360  0.87343445     0.09800
C1498       C  0.92683907  0.16167172  0.87441346    -0.12300
H1499       H  0.88641198  0.18313264  0.90049064     0.13800
H1500       H  0.92172379  0.08944645  0.93694305     0.13800
H1501       H  0.96371177  0.08874196  0.89454860     0.13800
H1502       H  0.92872639  0.18236307  0.85763634     0.13800
C1503       C  0.82357940  0.08809373  0.11014278    -0.12300
C1504       C  0.85258326  0.09588951  0.09355417     0.09800
C1505       C  0.88127986  0.07859432  0.10092976    -0.12300
C1506       C  0.88029300  0.05146446  0.12173748    -0.12300
C1507       C  0.85064456  0.04142449  0.13561690     0.09800
C1508       C  0.82262335  0.06084828  0.13123846    -0.12300
H1509       H  0.80117896  0.10118488  0.10466223     0.13800
H1510       H  0.90400738  0.08452808  0.08867768     0.13800
H1511       H  0.90233892  0.03718399  0.12541011     0.13800
H1512       H  0.79957012  0.05354467  0.14203517     0.13800
loop_ 
_geom_bond_atom_site_label_1 
_geom_bond_atom_site_label_2 
_geom_bond_distance 
_geom_bond_site_symmetry_2 
_ccdc_geom_bond_type 
In1           O3   2.216       .  S
In1           O4   2.286       .  S
In1          O12   2.223   1_554  S
In1           O6   2.188   1_554  S
In1           O8   2.180       .  S
In1           O9   2.283   1_554  S
In1          O10   2.237       .  S
In1          O13   2.210   1_554  S
C2            O8   1.263       .  A
C2           O10   1.267       .  A
C2         C1504   1.461       .  S
O3           C11   1.257       .  A
O4           C11   1.274       .  A
C5           O12   1.266       .  A
C5            O6   1.264       .  A
C5         C1494   1.461       .  S
C7            O9   1.275       .  A
C7           O13   1.258       .  A
C7         C1489   1.446       .  S
C11        C1491   1.450       .  S
In14         O16   2.204       .  S
In14         O17   2.265       .  S
In14         O25   2.222       .  S
In14         O19   2.200       .  S
In14         O21   2.193       .  S
In14         O22   2.266       .  S
In14         O23   2.229   1_565  S
In14         O26   2.201       .  S
C15          O21   1.266   1_545  A
C15          O23   1.266       .  A
C15        C1507   1.462       .  S
O16          C24   1.259       .  A
O17          C24   1.273       .  A
C18          O25   1.266       .  A
C18          O19   1.266       .  A
C18        C1480   1.464       .  S
C20          O22   1.274       .  A
C20          O26   1.259       .  A
C20        C1478   1.438       .  S
C24        C1475   1.438       .  S
In27         O29   2.209       .  S
In27         O30   2.278       .  S
In27         O38   2.236       .  S
In27         O32   2.184       .  S
In27         O34   2.187       .  S
In27         O35   2.278       .  S
In27         O36   2.224   1_455  S
In27         O39   2.212       .  S
C28          O34   1.264   1_655  A
C28          O36   1.267       .  A
C28        C1497   1.461       .  S
O29          C37   1.258       .  A
O30          C37   1.274       .  A
C31          O38   1.267       .  A
C31          O32   1.264       .  A
C31        C1466   1.464       .  S
C33          O35   1.274       .  A
C33          O39   1.258       .  A
C33        C1462   1.445   1_455  S
C37        C1463   1.445       .  S
In40         O42   2.227       .  S
In40         O43   2.295       .  S
In40         O51   2.234   1_455  S
In40         O45   2.189       .  S
In40         O47   2.191       .  S
In40         O48   2.293       .  S
In40         O49   2.235       .  S
In40         O52   2.224       .  S
C41          O47   1.262       .  A
C41          O49   1.266       .  A
C41        C1452   1.463       .  S
O42          C50   1.257       .  A
O43          C50   1.273       .  A
C44          O51   1.266       .  A
C44          O45   1.262   1_655  A
C44        C1483   1.462       .  S
C46          O48   1.274       .  A
C46          O52   1.257       .  A
C46        C1448   1.452       .  S
C50        C1450   1.454       .  S
In53         O55   2.216       .  S
In53         O56   2.277       .  S
In53         O64   2.232       .  S
In53         O58   2.192       .  S
In53         O60   2.192   1_556  S
In53         O61   2.274   1_556  S
In53         O62   2.224   1_556  S
In53         O65   2.209   1_556  S
C54          O60   1.264       .  A
C54          O62   1.266       .  A
C54        C1455   1.462       .  S
O55          C63   1.258       .  A
O56          C63   1.272       .  A
C57          O64   1.266       .  A
C57          O58   1.264       .  A
C57        C1438   1.464       .  S
C59          O61   1.274       .  A
C59          O65   1.258       .  A
C59        C1435   1.442       .  S
C63        C1433   1.445       .  S
In66         O68   2.225       .  S
In66         O69   2.295       .  S
In66         O77   2.238       .  S
In66         O71   2.189       .  S
In66         O73   2.187       .  S
In66         O74   2.293       .  S
In66         O75   2.242   1_565  S
In66         O78   2.218       .  S
C67          O73   1.262   1_545  A
C67          O75   1.267       .  A
C67        C1469   1.465       .  S
O68          C76   1.257       .  A
O69          C76   1.274       .  A
C70          O77   1.266       .  A
C70          O71   1.262       .  A
C70        C1441   1.464       .  S
C72          O74   1.275       .  A
C72          O78   1.257       .  A
C72        C1429   1.451       .  S
C76        C1431   1.455   1_565  S
C79          C80   1.555       .  S
C79          C85   1.535       .  S
C79          C83   1.532       .  S
C79        C1425   1.524       .  S
C80          H87   1.084       .  S
C80          C81   1.380       .  D
C81          C82   1.551       .  S
C81        C1421   1.511       .  S
C82          C86   1.521       .  S
C82          C84   1.536       .  S
C82          H88   1.106       .  S
C83          H89   1.087       .  S
C83          C84   1.362       .  D
C84        C1416   1.447       .  S
C85          H90   1.085       .  S
C85          C86   1.361       .  D
C86        C1417   1.468       .  S
C91          C92   1.538       .  S
C91          C97   1.530       .  S
C91          C95   1.546       .  S
C91        C1426   1.523       .  S
C92          H99   1.084       .  S
C92          C93   1.361       .  D
C93          C94   1.532       .  S
C93        C1408   1.477       .  S
C94          C98   1.555       .  S
C94          C96   1.548       .  S
C94         H100   1.110       .  S
C95         H101   1.085       .  S
C95          C96   1.376       .  D
C96        C1405   1.468       .  S
C97         H102   1.087       .  S
C97          C98   1.363       .  D
C98        C1411   1.495       .  S
C103        C104   1.550       .  S
C103        C109   1.539       .  S
C103        C107   1.541       .  S
C103       C1401   1.519       .  S
C104        H111   1.084       .  S
C104        C105   1.378       .  D
C105        C106   1.532       .  S
C105       C1412   1.494       .  S
C106        C110   1.520       .  S
C106        C108   1.529       .  S
C106        H112   1.112       .  S
C107        H113   1.085       .  S
C107        C108   1.362       .  D
C108       C1396   1.436       .  S
C109        H114   1.083       .  S
C109        C110   1.359       .  D
C110       C1397   1.463       .  S
C115        C116   1.533       .  S
C115        C121   1.536       .  S
C115        C119   1.540       .  S
C115       C1402   1.520       .  S
C116        H123   1.083       .  S
C116        C117   1.361       .  D
C117        C118   1.530       .  S
C117       C1387   1.476       .  S
C118        C122   1.556       .  S
C118        C120   1.546       .  S
C118        H124   1.109       .  S
C119        H125   1.086       .  S
C119        C120   1.370       .  D
C120       C1385   1.457       .  S
C121        H126   1.086       .  S
C121        C122   1.366       .  D
C122       C1391   1.498       .  S
C127        C128   1.548       .  S
C127        C133   1.535       .  S
C127        C131   1.552       .  S
C127       C1381   1.531       .  S
C128        H135   1.084       .  S
C128        C129   1.378       .  D
C129        C130   1.534       .  S
C129       C1392   1.498       .  S
C130        C134   1.518       .  S
C130        C132   1.531       .  S
C130        H136   1.112       .  S
C131        H137   1.084       .  S
C131        C132   1.372       .  D
C132       C1375   1.454       .  S
C133        H138   1.083       .  S
C133        C134   1.359       .  D
C134       C1377   1.461       .  S
C139        C140   1.534       .  S
C139        C145   1.552       .  S
C139        C143   1.546       .  S
C139       C1382   1.529       .  S
C140        H147   1.081       .  S
C140        C141   1.361       .  D
C141        C142   1.531       .  S
C141       C1371   1.476       .  S
C142        C146   1.545       .  S
C142        C144   1.536       .  S
C142        H148   1.112       .  S
C143        H149   1.086       .  S
C143        C144   1.367       .  D
C144       C1369   1.459       .  S
C145        H150   1.085       .  S
C145        C146   1.377       .  D
C146       C1422   1.499       .  S
C151        C152   1.538       .  S
C151        C157   1.534       .  S
C151        C155   1.550       .  S
C151       C1365   1.521       .  S
C152        H159   1.081       .  S
C152        C153   1.360       .  D
C153        C154   1.526       .  S
C153       C1388   1.474       .  S
C154        C158   1.540       .  S
C154        C156   1.535       .  S
C154        H160   1.112       .  S
C155        H161   1.085       .  S
C155        C156   1.373       .  D
C156       C1359   1.454       .  S
C157        H162   1.084       .  S
C157        C158   1.370       .  D
C158       C1361   1.489       .  S
C163        C164   1.552       .  S
C163        C169   1.535       .  S
C163        C167   1.536       .  S
C163       C1366   1.521       .  S
C164        H171   1.085       .  S
C164        C165   1.381       .  D
C165        C166   1.534       .  S
C165       C1355   1.495       .  S
C166        C170   1.520       .  S
C166        C168   1.530       .  S
C166        H172   1.112       .  S
C167        H173   1.086       .  S
C167        C168   1.360       .  D
C168       C1353   1.436       .  S
C169        H174   1.079       .  S
C169        C170   1.359       .  D
C170       C1378   1.465       .  S
C175        C176   1.535       .  S
C175        C181   1.544       .  S
C175        C179   1.538       .  S
C175       C1349   1.522       .  S
C176        H183   1.084       .  S
C176        C177   1.361       .  D
C177        C178   1.532       .  S
C177       C1407   1.478       .  S
C178        C182   1.553       .  S
C178        C180   1.540       .  S
C178        H184   1.109       .  S
C179        H185   1.086       .  S
C179        C180   1.367       .  D
C180       C1344   1.451       .  S
C181        H186   1.083       .  S
C181        C182   1.369       .  D
C182       C1345   1.500       .  S
C187        C188   1.537       .  S
C187        C193   1.535       .  S
C187        C191   1.542       .  S
C187       C1350   1.519       .  S
C188        H195   1.086       .  S
C188        C189   1.370       .  D
C189        C190   1.546       .  S
C189       C1362   1.490       .  S
C190        C194   1.524       .  S
C190        C192   1.536       .  S
C190        H196   1.108       .  S
C191        H197   1.086       .  S
C191        C192   1.369       .  D
C192       C1342   1.448       .  S
C193        H198   1.083       .  S
C193        C194   1.360       .  D
C194       C1398   1.470       .  S
C199        C200   1.556       .  S
C199        C205   1.535       .  S
C199        C203   1.538       .  S
C199       C1337   1.522       .  S
C200        H207   1.083       .  S
C200        C201   1.379       .  D
C201        C202   1.535       .  S
C201       C1346   1.498       .  S
C202        C206   1.522       .  S
C202        C204   1.532       .  S
C202        H208   1.112       .  S
C203        H209   1.086       .  S
C203        C204   1.364       .  D
C204       C1335   1.448       .  S
C205        H210   1.084       .  S
C205        C206   1.362       .  D
C206       C1418   1.468       .  S
C211        C212   1.536       .  S
C211        C217   1.534       .  S
C211        C215   1.545       .  S
C211       C1338   1.523       .  S
C212        H219   1.085       .  S
C212        C213   1.361       .  D
C213        C214   1.530       .  S
C213       C1372   1.474       .  S
C214        C218   1.557       .  S
C214        C216   1.543       .  S
C214        H220   1.109       .  S
C215        H221   1.086       .  S
C215        C216   1.371       .  D
C216       C1334   1.461       .  S
C217        H222   1.086       .  S
C217        C218   1.367       .  D
C218       C1356   1.500       .  S
In223       O225   2.207       .  S
In223       O226   2.271       .  S
In223       O234   2.237       .  S
In223       O228   2.186       .  S
In223       O230   2.191       .  S
In223       O231   2.271       .  S
In223       O232   2.227       .  S
In223       O235   2.206       .  S
C224        O230   1.264       .  A
C224        O232   1.265       .  A
C224       C1314   1.461       .  S
O225        C233   1.258       .  A
O226        C233   1.273       .  A
C227        O234   1.267       .  A
C227        O228   1.264       .  A
C227       C1324   1.463       .  S
C229        O231   1.273       .  A
C229        O235   1.258       .  A
C229       C1341   1.440       .  S
C233       C1311   1.440       .  S
In236       O238   2.216       .  S
In236       O239   2.283       .  S
In236       O247   2.241       .  S
In236       O241   2.180       .  S
In236       O243   2.191       .  S
In236       O244   2.286       .  S
In236       O245   2.215       .  S
In236       O248   2.221       .  S
C237        O243   1.264       .  A
C237        O245   1.267       .  A
C237       C1305   1.459       .  S
O238        C246   1.258       .  A
O239        C246   1.274       .  A
C240        O247   1.267       .  A
C240        O241   1.262       .  A
C240       C1327   1.462       .  S
C242        O244   1.274       .  A
C242        O248   1.257       .  A
C242       C1300   1.450       .  S
C246       C1360   1.447       .  S
In249       O251   2.225   1_556  S
In249       O252   2.292   1_556  S
In249       O260   2.233       .  S
In249       O254   2.180       .  S
In249       O256   2.180   1_556  S
In249       O257   2.289       .  S
In249       O258   2.227   1_556  S
In249       O261   2.226       .  S
C250        O256   1.265       .  A
C250        O258   1.268       .  A
C250       C1317   1.461       .  S
O251        C259   1.259       .  A
O252        C259   1.277       .  A
C253        O260   1.268       .  A
C253        O254   1.265       .  A
C253       C1293   1.462       .  S
C255        O257   1.276       .  A
C255        O261   1.259       .  A
C255       C1286   1.455       .  S
C259       C1288   1.458       .  S
In262       O264   2.195   1_556  S
In262       O265   2.257   1_556  S
In262       O273   2.210   1_556  S
In262       O267   2.196   1_556  S
In262       O269   2.180       .  S
In262       O270   2.265       .  S
In262       O271   2.244       .  S
In262       O274   2.193       .  S
C263        O269   1.261       .  A
C263        O271   1.266       .  A
C263       C1276   1.461       .  S
O264        C272   1.258       .  A
O265        C272   1.271       .  A
C266        O273   1.265       .  A
C266        O267   1.265       .  A
C266       C1302   1.459       .  S
C268        O270   1.272       .  A
C268        O274   1.255       .  A
C268       C1272   1.431       .  S
C272       C1274   1.432       .  S
In275       O277   2.213       .  S
In275       O278   2.277       .  S
In275       O286   2.229       .  S
In275       O280   2.180       .  S
In275       O282   2.181       .  S
In275       O283   2.282       .  S
In275       O284   2.217       .  S
In275       O287   2.212       .  S
C276        O282   1.267       .  A
C276        O284   1.269       .  A
C276       C1265   1.460       .  S
O277        C285   1.261       .  A
O278        C285   1.277       .  A
C279        O286   1.268       .  A
C279        O280   1.266       .  A
C279       C1279   1.461       .  S
C281        O283   1.277       .  A
C281        O287   1.260       .  A
C281       C1370   1.451       .  S
C285       C1259   1.449       .  S
In288       O290   2.200       .  S
In288       O291   2.267       .  S
In288       O299   2.233       .  S
In288       O293   2.177       .  S
In288       O295   2.187       .  S
In288       O296   2.270       .  S
In288       O297   2.222       .  S
In288       O300   2.197       .  S
C289        O295   1.265       .  A
C289        O297   1.267       .  A
C289       C1262   1.461       .  S
O290        C298   1.258       .  A
O291        C298   1.275       .  A
C292        O299   1.268       .  A
C292        O293   1.264       .  A
C292       C1290   1.461       .  S
C294        O296   1.274       .  A
C294        O300   1.258       .  A
C294       C1257   1.439       .  S
C298       C1415   1.439       .  S
C301        C302   1.532       .  S
C301        C307   1.532       .  S
C301        C305   1.546       .  S
C301       C1254   1.524       .  S
C302        H309   1.083       .  S
C302        C303   1.357       .  D
C303        C304   1.531       .  S
C303       C1246   1.475       .  S
C304        C308   1.559       .  S
C304        C306   1.547       .  S
C304        H310   1.108       .  S
C305        H311   1.086       .  S
C305        C306   1.376       .  D
C306       C1243   1.466       .  S
C307        H312   1.087       .  S
C307        C308   1.365       .  D
C308       C1249   1.498       .  S
C313        C314   1.550       .  S
C313        C319   1.540       .  S
C313        C317   1.535       .  S
C313       C1253   1.526       .  S
C314        H321   1.084       .  S
C314        C315   1.374       .  D
C315        C316   1.543       .  S
C315       C1239   1.497       .  S
C316        C320   1.524       .  S
C316        C318   1.532       .  S
C316        H322   1.109       .  S
C317        H323   1.086       .  S
C317        C318   1.364       .  D
C318       C1273   1.440       .  S
C319        H324   1.084       .  S
C319        C320   1.363       .  D
C320       C1236   1.474       .  S
C325        C326   1.537       .  S
C325        C331   1.540       .  S
C325        C329   1.545       .  S
C325       C1231   1.523       .  S
C326        H333   1.081       .  S
C326        C327   1.360       .  D
C327        C328   1.522       .  S
C327       C1227   1.466       .  S
C328        C332   1.543       .  S
C328        C330   1.538       .  S
C328        H334   1.112       .  S
C329        H335   1.086       .  S
C329        C330   1.372       .  D
C330       C1260   1.456       .  S
C331        H336   1.084   1_556  S
C331        C332   1.371       .  D
C332       C1240   1.497   1_556  S
C337        C338   1.551   1_655  S
C337        C343   1.539       .  S
C337        C341   1.540       .  S
C337       C1223   1.525       .  S
C338        H345   1.084       .  S
C338        C339   1.382   1_455  D
C339        C340   1.533       .  S
C339       C1250   1.495   1_655  S
C340        C344   1.518       .  S
C340        C342   1.528       .  S
C340        H346   1.112       .  S
C341        H347   1.086       .  S
C341        C342   1.362       .  D
C342       C1217   1.439       .  S
C343        H348   1.080       .  S
C343        C344   1.361       .  D
C344       C1220   1.464       .  S
C349        C350   1.534       .  S
C349        C355   1.543   1_655  S
C349        C353   1.552       .  S
C349       C1224   1.528       .  S
C350        H357   1.081       .  S
C350        C351   1.358       .  D
C351        C352   1.525       .  S
C351       C1209   1.469   1_554  S
C352        C356   1.543   1_655  S
C352        C354   1.535       .  S
C352        H358   1.112   1_554  S
C353        H359   1.084       .  S
C353        C354   1.371       .  D
C354       C1492   1.457       .  S
C355        H360   1.084       .  S
C355        C356   1.376       .  D
C356       C1213   1.499   1_554  S
C361        C362   1.544       .  S
C361        C367   1.534       .  S
C361        C365   1.538       .  S
C361       C1232   1.524       .  S
C362        H369   1.085       .  S
C362        C363   1.373       .  D
C363        C364   1.552       .  S
C363       C1214   1.501       .  S
C364        C368   1.529       .  S
C364        C366   1.541       .  S
C364        H370   1.108       .  S
C365        H371   1.086       .  S
C365        C366   1.366       .  D
C366       C1464   1.453       .  S
C367        H372   1.081       .  S
C367        C368   1.361       .  D
C368       C1206   1.477       .  S
C373        C374   1.529       .  S
C373        C379   1.539       .  S
C373        C377   1.543       .  S
C373       C1197   1.523       .  S
C374        H381   1.083       .  S
C374        C375   1.359       .  D
C375        C376   1.530       .  S
C375       C1210   1.472   1_556  S
C376        C380   1.557       .  S
C376        C378   1.545       .  S
C376        H382   1.109   1_556  S
C377        H383   1.086       .  S
C377        C378   1.371       .  D
C378       C1285   1.462       .  S
C379        H384   1.086       .  S
C379        C380   1.369       .  D
C380       C1201   1.500       .  S
C385        C386   1.539       .  S
C385        C391   1.538       .  S
C385        C389   1.541       .  S
C385       C1198   1.520       .  S
C386        H393   1.086       .  S
C386        C387   1.370   1_655  D
C387        C388   1.545       .  S
C387       C1193   1.496       .  S
C388        C392   1.527       .  S
C388        C390   1.535   1_455  S
C388        H394   1.108       .  S
C389        H395   1.085       .  S
C389        C390   1.368       .  D
C390       C1191   1.443       .  S
C391        H396   1.083       .  S
C391        C392   1.363   1_655  D
C392       C1205   1.473       .  S
C397        C398   1.552       .  S
C397        C403   1.534       .  S
C397        C401   1.541       .  S
C397       C1188   1.527       .  S
C398        H405   1.085       .  S
C398        C399   1.381       .  D
C399        C400   1.536       .  S
C399       C1202   1.497       .  S
C400        C404   1.522       .  S
C400        C402   1.533       .  S
C400        H406   1.112       .  S
C401        H407   1.086       .  S
C401        C402   1.364       .  D
C402       C1312   1.448       .  S
C403        H408   1.080       .  S
C403        C404   1.361       .  D
C404       C1219   1.468       .  S
C409        C410   1.534       .  S
C409        C415   1.541       .  S
C409        C413   1.552       .  S
C409       C1187   1.527       .  S
C410        H417   1.081       .  S
C410        C411   1.358   1_655  D
C411        C412   1.528       .  S
C411       C1245   1.472       .  S
C412        C416   1.544       .  S
C412        C414   1.536   1_455  S
C412        H418   1.112       .  S
C413        H419   1.085       .  S
C413        C414   1.375       .  D
C414       C1447   1.460   1_655  S
C415        H420   1.084       .  S
C415        C416   1.372   1_655  D
C416       C1184   1.498       .  S
C421        C422   1.529       .  S
C421        C427   1.543       .  S
C421        C425   1.544       .  S
C421       C1179   1.526       .  S
C422        H429   1.083       .  S
C422        C423   1.360       .  D
C423        C424   1.529       .  S
C423       C1228   1.471       .  S
C424        C428   1.543       .  S
C424        C426   1.543       .  S
C424        H430   1.112       .  S
C425        H431   1.086       .  S
C425        C426   1.373       .  D
C426       C1177   1.460       .  S
C427        H432   1.083       .  S
C427        C428   1.373       .  D
C428       C1194   1.497       .  S
C433        C434   1.542       .  S
C433        C439   1.538       .  S
C433        C437   1.539       .  S
C433       C1180   1.522       .  S
C434        H441   1.086       .  S
C434        C435   1.371       .  D
C435        C436   1.546       .  S
C435       C1183   1.499       .  S
C436        C440   1.527       .  S
C436        C438   1.541       .  S
C436        H442   1.109   1_556  S
C437        H443   1.085       .  S
C437        C438   1.367       .  D
C438       C1434   1.452       .  S
C439        H444   1.082       .  S
C439        C440   1.365       .  D
C440       C1235   1.476   1_556  S
C445        C446   1.549       .  S
C445        C451   1.532       .  S
C445        C449   1.545       .  S
C445       C1174   1.527       .  S
C446        H453   1.084       .  S
C446        C447   1.378   1_545  D
C447        C448   1.535       .  S
C447       C1169   1.498       .  S
C448        C452   1.520       .  S
C448        C450   1.534   1_565  S
C448        H454   1.112       .  S
C449        H455   1.086       .  S
C449        C450   1.371       .  D
C450       C1163   1.451       .  S
C451        H456   1.083       .  S
C451        C452   1.359   1_545  D
C452       C1165   1.461       .  S
C457        C458   1.536       .  S
C457        C463   1.546       .  S
C457        C461   1.542       .  S
C457       C1173   1.530       .  S
C458        H465   1.082       .  S
C458        C459   1.363       .  D
C459        C460   1.529       .  S
C459       C1155   1.477   1_554  S
C460        C464   1.558       .  S
C460        C462   1.546       .  S
C460        H466   1.107       .  S
C461        H467   1.086       .  S
C461        C462   1.369       .  D
C462       C1287   1.466       .  S
C463        H468   1.084       .  S
C463        C464   1.373       .  D
C464       C1159   1.511       .  S
C469        C470   1.538       .  S
C469        C475   1.533       .  S
C469        C473   1.539       .  S
C469       C1151   1.518       .  S
C470        H477   1.083       .  S
C470        C471   1.363       .  D
C471        C472   1.534       .  S
C471       C1148   1.480       .  S
C472        C476   1.555       .  S
C472        C474   1.546       .  S
C472        H478   1.109       .  S
C473        H479   1.086       .  S
C473        C474   1.370       .  D
C474       C1145   1.457       .  S
C475        H480   1.086       .  S
C475        C476   1.365       .  D
C476       C1170   1.498       .  S
C481        C482   1.559       .  S
C481        C487   1.538       .  S
C481        C485   1.545       .  S
C481       C1141   1.534       .  S
C482        H489   1.085       .  S
C482        C483   1.383       .  D
C483        C484   1.537       .  S
C483       C1160   1.502       .  S
C484        C488   1.524       .  S
C484        C486   1.528       .  S
C484        H490   1.112       .  S
C485        H491   1.086       .  S
C485        C486   1.363       .  D
C486       C1258   1.448       .  S
C487        H492   1.080       .  S
C487        C488   1.361       .  D
C488       C1137   1.469       .  S
C493        C494   1.531       .  S
C493        C499   1.548       .  S
C493        C497   1.557       .  S
C493       C1142   1.536       .  S
C494        H501   1.082       .  S
C494        C495   1.357   1_545  D
C495        C496   1.520       .  S
C495       C1129   1.462       .  S
C496        C500   1.540       .  S
C496        C498   1.534   1_565  S
C496        H502   1.112       .  S
C497        H503   1.084       .  S
C497        C498   1.376       .  D
C498       C1432   1.462       .  S
C499        H504   1.084   1_556  S
C499        C500   1.377   1_545  D
C500       C1134   1.500       .  S
C505        C506   1.546       .  S
C505        C511   1.535       .  S
C505        C509   1.534       .  S
C505       C1152   1.522       .  S
C506        H513   1.083       .  S
C506        C507   1.372       .  D
C507        C508   1.552       .  S
C507       C1133   1.504       .  S
C508        C512   1.524       .  S
C508        C510   1.542       .  S
C508        H514   1.108       .  S
C509        H515   1.086       .  S
C509        C510   1.365       .  D
C510       C1436   1.450       .  S
C511        H516   1.084       .  S
C511        C512   1.362       .  D
C512       C1125   1.472       .  S
C517        C518   1.531       .  S
C517        C523   1.538       .  S
C517        C521   1.552       .  S
C517       C1117   1.525       .  S
C518        H525   1.084       .  S
C518        C519   1.358       .  D
C519        C520   1.523       .  S
C519       C1130   1.464       .  S
C520        C524   1.540       .  S
C520        C522   1.535       .  S
C520        H526   1.112       .  S
C521        H527   1.085       .  S
C521        C522   1.374       .  D
C522       C1116   1.460       .  S
C523        H528   1.084       .  S
C523        C524   1.374       .  D
C524       C1121   1.492       .  S
C529        C530   1.559       .  S
C529        C535   1.538       .  S
C529        C533   1.535       .  S
C529       C1118   1.522       .  S
C530        H537   1.084       .  S
C530        C531   1.383       .  D
C531        C532   1.536       .  S
C531       C1112   1.498       .  S
C532        C536   1.523       .  S
C532        C534   1.528       .  S
C532        H538   1.112   1_556  S
C533        H539   1.087       .  S
C533        C534   1.359       .  D
C534       C1271   1.440       .  S
C535        H540   1.084       .  S
C535        C536   1.362       .  D
C536       C1126   1.469   1_556  S
C541        C542   1.534       .  S
C541        C547   1.542       .  S
C541        C545   1.541       .  S
C541       C1107   1.523       .  S
C542        H549   1.084       .  S
C542        C543   1.362       .  D
C543        C544   1.534       .  S
C543       C1147   1.481       .  S
C544        C548   1.556       .  S
C544        C546   1.542       .  S
C544        H550   1.109       .  S
C545        H551   1.086       .  S
C545        C546   1.368       .  D
C546       C1299   1.458       .  S
C547        H552   1.084   1_554  S
C547        C548   1.370       .  D
C548       C1111   1.502   1_554  S
C553        C554   1.548       .  S
C553        C559   1.534       .  S
C553        C557   1.544       .  S
C553       C1108   1.522       .  S
C554        H561   1.084   1_554  S
C554        C555   1.378       .  D
C555        C556   1.534       .  S
C555       C1103   1.494       .  S
C556        C560   1.519       .  S
C556        C558   1.530       .  S
C556        H562   1.112       .  S
C557        H563   1.086       .  S
C557        C558   1.368       .  D
C558       C1476   1.445       .  S
C559        H564   1.084       .  S
C559        C560   1.358       .  D
C560       C1166   1.459       .  S
C565        C566   1.537   1_545  S
C565        C571   1.533       .  S
C565        C569   1.536       .  S
C565       C1099   1.516       .  S
C566        H573   1.086       .  S
C566        C567   1.370       .  D
C567        C568   1.550   1_565  S
C567       C1122   1.493       .  S
C568        C572   1.528       .  S
C568        C570   1.540       .  S
C568        H574   1.108       .  S
C569        H575   1.086       .  S
C569        C570   1.367       .  D
C570       C1097   1.447       .  S
C571        H576   1.081       .  S
C571        C572   1.361       .  D
C572       C1138   1.475       .  S
C577        C578   1.539       .  S
C577        C583   1.541   1_545  S
C577        C581   1.539       .  S
C577       C1100   1.524       .  S
C578        H585   1.082       .  S
C578        C579   1.362       .  D
C579        C580   1.525       .  S
C579       C1156   1.474       .  S
C580        C584   1.551   1_545  S
C580        C582   1.541       .  S
C580        H586   1.108       .  S
C581        H587   1.086       .  S
C581        C582   1.369       .  D
C582       C1490   1.454       .  S
C583        H588   1.083       .  S
C583        C584   1.365       .  D
C584       C1104   1.498       .  S
In589       O591   2.210       .  S
In589       O592   2.263       .  S
In589       O600   2.213       .  S
In589       O594   2.199       .  S
In589       O596   2.195       .  S
In589       O597   2.266       .  S
In589       O598   2.223       .  S
In589       O601   2.207       .  S
C590        O596   1.266       .  A
C590        O598   1.266       .  A
C590       C1088   1.464       .  S
O591        C599   1.260       .  A
O592        C599   1.273       .  A
C593        O600   1.266       .  A
C593        O594   1.267       .  A
C593       C1078   1.463       .  S
C595        O597   1.273       .  A
C595        O601   1.259       .  A
C595       C1098   1.440       .  S
C599       C1336   1.441       .  S
In602       O604   2.203       .  S
In602       O605   2.269       .  S
In602       O613   2.227       .  S
In602       O607   2.187       .  S
In602       O609   2.182       .  S
In602       O610   2.267       .  S
In602       O611   2.234       .  S
In602       O614   2.198       .  S
C603        O609   1.266       .  A
C603        O611   1.266       .  A
C603       C1068   1.457       .  S
O604        C612   1.259       .  A
O605        C612   1.275       .  A
C606        O613   1.268       .  A
C606        O607   1.266       .  A
C606       C1091   1.464       .  S
C608        O610   1.276       .  A
C608        O614   1.260       .  A
C608       C1066   1.440       .  S
C612       C1343   1.442       .  S
In615       O617   2.206       .  S
In615       O618   2.270       .  S
In615       O626   2.225       .  S
In615       O620   2.192       .  S
In615       O622   2.173   1_565  S
In615       O623   2.275       .  S
In615       O624   2.240   1_565  S
In615       O627   2.200       .  S
C616        O622   1.265       .  A
C616        O624   1.268       .  A
C616       C1071   1.459       .  S
O617        C625   1.260       .  A
O618        C625   1.275       .  A
C619        O626   1.268       .  A
C619        O620   1.266       .  A
C619       C1056   1.465       .  S
C621        O623   1.276       .  A
C621        O627   1.258       .  A
C621       C1164   1.443       .  S
C625       C1053   1.443       .  S
In628       O630   2.220       .  S
In628       O631   2.285       .  S
In628       O639   2.244       .  S
In628       O633   2.174       .  S
In628       O635   2.188       .  S
In628       O636   2.292       .  S
In628       O637   2.222       .  S
In628       O640   2.211       .  S
C629        O635   1.265       .  A
C629        O637   1.268       .  A
C629       C1081   1.463   1_565  S
O630        C638   1.260       .  A
O631        C638   1.276       .  A
C632        O639   1.268       .  A
C632        O633   1.264       .  A
C632       C1044   1.458       .  S
C634        O636   1.277       .  A
C634        O640   1.258       .  A
C634       C1115   1.452       .  S
C638       C1041   1.453       .  S
In641       O643   2.207       .  S
In641       O644   2.278       .  S
In641       O652   2.235       .  S
In641       O646   2.181       .  S
In641       O648   2.203       .  S
In641       O649   2.273       .  S
In641       O650   2.223       .  S
In641       O653   2.210       .  S
C642        O648   1.267       .  A
C642        O650   1.268       .  A
C642       C1032   1.468       .  S
O643        C651   1.259       .  A
O644        C651   1.276       .  A
C645        O652   1.267       .  A
C645        O646   1.266       .  A
C645       C1047   1.459       .  S
C647        O649   1.276       .  A
C647        O653   1.261       .  A
C647       C1029   1.447       .  S
C651       C1376   1.447       .  S
In654       O656   2.218       .  S
In654       O657   2.283       .  S
In654       O665   2.232       .  S
In654       O659   2.198       .  S
In654       O661   2.194       .  S
In654       O662   2.285       .  S
In654       O663   2.230       .  S
In654       O666   2.218       .  S
C655        O661   1.264       .  A
C655        O663   1.266       .  A
C655       C1059   1.465       .  S
O656        C664   1.258       .  A
O657        C664   1.274       .  A
C658        O665   1.267       .  A
C658        O659   1.264       .  A
C658       C1035   1.468       .  S
C660        O662   1.274       .  A
C660        O666   1.258       .  A
C660       C1146   1.450       .  S
C664       C1386   1.449       .  S
C667        C668   1.556       .  S
C667        C673   1.537       .  S
C667        C671   1.538       .  S
C667       C1026   1.525       .  S
C668        H675   1.083       .  S
C668        C669   1.381       .  D
C669        C670   1.535       .  S
C669       C1022   1.499       .  S
C670        C674   1.523       .  S
C670        C672   1.531       .  S
C670        H676   1.112       .  S
C671        H677   1.086       .  S
C671        C672   1.363       .  D
C672       C1016   1.443       .  S
C673        H678   1.083       .  S
C673        C674   1.361       .  D
C674       C1017   1.470       .  S
C679        C680   1.532       .  S
C679        C685   1.537       .  S
C679        C683   1.550       .  S
C679       C1025   1.526       .  S
C680        H687   1.083       .  S
C680        C681   1.358   1_545  D
C681        C682   1.528       .  S
C681       C1008   1.471       .  S
C682        C686   1.552       .  S
C682        C684   1.539   1_565  S
C682        H688   1.109       .  S
C683        H689   1.085       .  S
C683        C684   1.374       .  D
C684       C1042   1.460       .  S
C685        H690   1.086       .  S
C685        C686   1.369   1_545  D
C686       C1011   1.497       .  S
C691        C692   1.547       .  S
C691        C697   1.534       .  S
C691        C695   1.542       .  S
C691       C1003   1.526       .  S
C692        H699   1.084       .  S
C692        C693   1.377       .  D
C693        C694   1.539       .  S
C693       C1012   1.497       .  S
C694        C698   1.522       .  S
C694        C696   1.537       .  S
C694        H700   1.112       .  S
C695        H701   1.086       .  S
C695        C696   1.368       .  D
C696       C1030   1.454       .  S
C697        H702   1.084       .  S
C697        C698   1.361       .  D
C698        C999   1.466       .  S
C703        C704   1.535       .  S
C703        C709   1.533   1_655  S
C703        C707   1.547       .  S
C703        C995   1.524       .  S
C704        H711   1.082       .  S
C704        C705   1.361       .  D
C705        C706   1.529       .  S
C705        C991   1.474       .  S
C706        C710   1.556   1_655  S
C706        C708   1.545       .  S
C706        H712   1.108       .  S
C707        H713   1.085       .  S
C707        C708   1.374       .  D
C708        C989   1.464       .  S
C709        H714   1.087       .  S
C709        C710   1.366       .  D
C710       C1021   1.501       .  S
C715        C716   1.555       .  S
C715        C721   1.535       .  S
C715        C719   1.538       .  S
C715        C996   1.525       .  S
C716        H723   1.084   1_655  S
C716        C717   1.380   1_545  D
C717        C718   1.535       .  S
C717        C986   1.501   1_655  S
C718        C722   1.523       .  S
C718        C720   1.533   1_565  S
C718        H724   1.112       .  S
C719        H725   1.086       .  S
C719        C720   1.364       .  D
C720       C1477   1.446   1_545  S
C721        H726   1.081       .  S
C721        C722   1.361   1_545  D
C722        C982   1.466       .  S
C727        C728   1.533       .  S
C727        C733   1.533       .  S
C727        C731   1.547       .  S
C727       C1004   1.523       .  S
C728        H735   1.084       .  S
C728        C729   1.362       .  D
C729        C730   1.536       .  S
C729        C977   1.481       .  S
C730        C734   1.556       .  S
C730        C732   1.547       .  S
C730        H736   1.109       .  S
C731        H737   1.085       .  S
C731        C732   1.374       .  D
C732       C1449   1.462       .  S
C733        H738   1.087       .  S
C733        C734   1.366       .  D
C734        C985   1.501       .  S
C739        C740   1.536       .  S
C739        C745   1.533       .  S
C739        C743   1.544       .  S
C739        C969   1.524       .  S
C740        H747   1.082       .  S
C740        C741   1.362   1_655  D
C741        C742   1.535       .  S
C741        C978   1.480       .  S
C742        C746   1.557       .  S
C742        C744   1.546   1_455  S
C742        H748   1.109       .  S
C743        H749   1.086       .  S
C743        C744   1.374       .  D
C744        C967   1.464       .  S
C745        H750   1.087       .  S
C745        C746   1.364   1_655  D
C746        C973   1.499       .  S
C751        C752   1.550       .  S
C751        C757   1.534       .  S
C751        C755   1.538       .  S
C751        C970   1.526       .  S
C752        H759   1.084       .  S
C752        C753   1.375       .  D
C753        C754   1.549       .  S
C753        C963   1.503       .  S
C754        C758   1.521       .  S
C754        C756   1.537       .  S
C754        H760   1.107       .  S
C755        H761   1.086       .  S
C755        C756   1.367       .  D
C756       C1054   1.451       .  S
C757        H762   1.084       .  S
C757        C758   1.361       .  D
C758        C981   1.468       .  S
C763        C764   1.554       .  S
C763        C769   1.537       .  S
C763        C767   1.533       .  S
C763        C959   1.518       .  S
C764        H771   1.084       .  S
C764        C765   1.381       .  D
C765        C766   1.533       .  S
C765        C974   1.498       .  S
C766        C770   1.519       .  S
C766        C768   1.529       .  S
C766        H772   1.112       .  S
C767        H773   1.087       .  S
C767        C768   1.359       .  D
C768        C957   1.435       .  S
C769        H774   1.081       .  S
C769        C770   1.361       .  D
C770       C1000   1.463       .  S
C775        C776   1.534       .  S
C775        C781   1.534       .  S
C775        C779   1.552       .  S
C775        C960   1.521       .  S
C776        H783   1.083       .  S
C776        C777   1.358       .  D
C777        C778   1.528       .  S
C777       C1007   1.472       .  S
C778        C782   1.542       .  S
C778        C780   1.537       .  S
C778        H784   1.112       .  S
C779        H785   1.085       .  S
C779        C780   1.372       .  D
C780       C1430   1.458       .  S
C781        H786   1.084       .  S
C781        C782   1.372       .  D
C782        C953   1.491       .  S
C787        C788   1.536       .  S
C787        C793   1.548   1_545  S
C787        C791   1.539       .  S
C787        C949   1.520       .  S
C788        H795   1.083       .  S
C788        C789   1.361       .  D
C789        C790   1.529       .  S
C789        C992   1.475       .  S
C790        C794   1.543   1_545  S
C790        C792   1.536       .  S
C790        H796   1.112       .  S
C791        H797   1.086       .  S
C791        C792   1.363       .  D
C792       C1065   1.448       .  S
C793        H798   1.085       .  S
C793        C794   1.376       .  D
C794        C964   1.496       .  S
C799        C800   1.535   1_545  S
C799        C805   1.537       .  S
C799        C803   1.547       .  S
C799        C950   1.521   1_545  S
C800        H807   1.087       .  S
C800        C801   1.368   1_655  D
C801        C802   1.544   1_565  S
C801        C954   1.490       .  S
C802        C806   1.522       .  S
C802        C804   1.537   1_455  S
C802        H808   1.110       .  S
C803        H809   1.084       .  S
C803        C804   1.371       .  D
C804       C1461   1.452       .  S
C805        H810   1.084       .  S
C805        C806   1.361   1_655  D
C806       C1018   1.468       .  S
In811       O813   2.224       .  S
In811       O814   2.277       .  S
In811       O822   2.228       .  S
In811       O816   2.172       .  S
In811       O818   2.191       .  S
In811       O819   2.276       .  S
In811       O820   2.209       .  S
In811       O823   2.217       .  S
C812        O818   1.269       .  A
C812        O820   1.269       .  A
C812        C933   1.462       .  S
O813        C821   1.262       .  A
O814        C821   1.276       .  A
C815        O822   1.268       .  A
C815        O816   1.268       .  A
C815        C940   1.456       .  S
C817        O819   1.278       .  A
C817        O823   1.262       .  A
C817       C1178   1.452       .  S
C821       C1333   1.454       .  S
In824       O826   2.180       .  S
In824       O827   2.250       .  S
In824       O835   2.241       .  S
In824       O829   2.167       .  S
In824       O831   2.201       .  S
In824       O832   2.250       .  S
In824       O833   2.213       .  S
In824       O836   2.183       .  S
C825        O831   1.265       .  A
C825        O833   1.266       .  A
C825        C920   1.462       .  S
O826        C834   1.257       .  A
O827        C834   1.273       .  A
C828        O835   1.267       .  A
C828        O829   1.264       .  A
C828        C943   1.455       .  S
C830        O832   1.272       .  A
C830        O836   1.259       .  A
C830       C1354   1.427       .  S
C834        C958   1.425       .  S
In837       O839   2.234       .  S
In837       O840   2.294       .  S
In837       O848   2.227   1_455  S
In837       O842   2.191       .  S
In837       O844   2.194       .  S
In837       O845   2.293       .  S
In837       O846   2.215       .  S
In837       O849   2.229       .  S
C838        O844   1.265       .  A
C838        O846   1.267       .  A
C838        C923   1.462       .  S
O839        C847   1.260       .  A
O840        C847   1.275       .  A
C841        O848   1.267       .  A
C841        O842   1.265   1_655  A
C841        C910   1.463       .  S
C843        O845   1.276       .  A
C843        O849   1.259       .  A
C843        C968   1.457       .  S
C847       C1244   1.459       .  S
In850       O852   2.196       .  S
In850       O853   2.267       .  S
In850       O861   2.229       .  S
In850       O855   2.199       .  S
In850       O857   2.186       .  S
In850       O858   2.264       .  S
In850       O859   2.229   1_455  S
In850       O862   2.203       .  S
C851        O857   1.263   1_655  A
C851        O859   1.266       .  A
C851        C900   1.460       .  S
O852        C860   1.257       .  A
O853        C860   1.272       .  A
C854        O861   1.265       .  A
C854        O855   1.263       .  A
C854        C930   1.464       .  S
C856        O858   1.271       .  A
C856        O862   1.257       .  A
C856       C1192   1.435       .  S
C860       C1015   1.434       .  S
In863       O865   2.225       .  S
In863       O866   2.290       .  S
In863       O874   2.225       .  S
In863       O868   2.183       .  S
In863       O870   2.177       .  S
In863       O871   2.296       .  S
In863       O872   2.227       .  S
In863       O875   2.227       .  S
C864        O870   1.265       .  A
C864        O872   1.268       .  A
C864        C890   1.459       .  S
O865        C873   1.260       .  A
O866        C873   1.277       .  A
C867        O874   1.268       .  A
C867        O868   1.265       .  A
C867        C903   1.461       .  S
C869        O871   1.277       .  A
C869        O875   1.260       .  A
C869       C1406   1.460       .  S
C873        C990   1.456       .  S
In876       O878   2.186       .  S
In876       O879   2.260       .  S
In876       O887   2.228       .  S
In876       O881   2.196       .  S
In876       O883   2.183       .  S
In876       O884   2.264       .  S
In876       O885   2.242       .  S
In876       O888   2.191       .  S
C877        O883   1.262       .  A
C877        O885   1.265       .  A
C877        C893   1.459       .  S
O878        C886   1.257       .  A
O879        C886   1.270       .  A
C880        O887   1.265       .  A
C880        O881   1.263       .  A
C880        C913   1.463       .  S
C882        O884   1.271       .  A
C882        O888   1.256       .  A
C882       C1218   1.431       .  S
C886       C1395   1.428       .  S
C889        C890   1.404       .  A
C889        C894   1.398       .  A
C889        H895   1.083       .  S
C890        C891   1.400       .  A
C891        C892   1.385       .  A
C891        H896   1.084       .  S
C892        C893   1.401       .  A
C892        H897   1.084       .  S
C893        C894   1.403       .  A
C894        H898   1.083       .  S
C899        C900   1.403       .  A
C899        C904   1.397       .  A
C899        H905   1.083       .  S
C900        C901   1.400       .  A
C901        C902   1.386       .  A
C901        H906   1.084       .  S
C902        C903   1.401       .  A
C902        H907   1.083       .  S
C903        C904   1.403       .  A
C904        H908   1.083       .  S
C909        C910   1.403       .  A
C909        C914   1.396       .  A
C909        H915   1.083       .  S
C910        C911   1.402       .  A
C911        C912   1.388       .  A
C911        H916   1.083       .  S
C912        C913   1.402       .  A
C912        H917   1.083       .  S
C913        C914   1.403       .  A
C914        H918   1.083       .  S
C919        C920   1.402       .  A
C919        C924   1.390       .  A
C919        H925   1.083       .  S
C920        C921   1.403       .  A
C921        C922   1.393       .  A
C921        H926   1.083       .  S
C922        C923   1.402       .  A
C922        H927   1.083       .  S
C923        C924   1.402       .  A
C924        H928   1.083       .  S
C929        C930   1.403       .  A
C929        C934   1.390       .  A
C929        H935   1.083       .  S
C930        C931   1.403       .  A
C931        C932   1.395       .  A
C931        H936   1.083       .  S
C932        C933   1.404       .  A
C932        H937   1.083       .  S
C933        C934   1.401       .  A
C934        H938   1.083       .  S
C939        C940   1.403       .  A
C939        C944   1.399       .  A
C939        H945   1.083       .  S
C940        C941   1.399       .  A
C941        C942   1.384       .  A
C941        H946   1.084       .  S
C942        C943   1.399       .  A
C942        H947   1.084       .  S
C943        C944   1.403       .  A
C944        H948   1.083       .  S
C949        H951   1.084       .  S
C949        C950   1.346   1_545  D
C950        H952   1.088       .  S
C953        H955   1.083       .  S
C953        C954   1.349       .  D
C954        H956   1.084       .  S
C957        C958   1.201       .  T
C959        H961   1.085       .  S
C959        C960   1.344       .  D
C960        H962   1.087       .  S
C963        H965   1.086       .  S
C963        C964   1.351       .  D
C964        H966   1.081       .  S
C967        C968   1.219   1_655  T
C969        H971   1.083       .  S
C969        C970   1.347       .  D
C970        H972   1.088       .  S
C973        H975   1.085       .  S
C973        C974   1.343       .  D
C974        H976   1.084       .  S
C977        H979   1.085       .  S
C977        C978   1.349       .  D
C978        H980   1.085       .  S
C981        H983   1.085       .  S
C981        C982   1.338       .  D
C982        H984   1.086       .  S
C985        H987   1.085       .  S
C985        C986   1.346       .  D
C986        H988   1.084       .  S
C989        C990   1.219       .  T
C991        H993   1.085       .  S
C991        C992   1.344       .  D
C992        H994   1.086       .  S
C995        H997   1.086   1_655  S
C995        C996   1.348       .  D
C996        H998   1.086       .  S
C999       H1001   1.086       .  S
C999       C1000   1.336       .  D
C1000      H1002   1.086       .  S
C1003      H1005   1.085       .  S
C1003      C1004   1.350       .  D
C1004      H1006   1.088       .  S
C1007      H1009   1.087       .  S
C1007      C1008   1.344       .  D
C1008      H1010   1.086       .  S
C1011      H1013   1.085       .  S
C1011      C1012   1.348       .  D
C1012      H1014   1.084       .  S
C1015      C1016   1.206       .  T
C1017      H1019   1.087       .  S
C1017      C1018   1.339       .  D
C1018      H1020   1.085       .  S
C1021      H1023   1.085       .  S
C1021      C1022   1.345       .  D
C1022      H1024   1.082       .  S
C1025      H1027   1.084       .  S
C1025      C1026   1.349       .  D
C1026      H1028   1.087       .  S
C1029      C1030   1.213       .  T
C1031      C1032   1.402       .  A
C1031      C1036   1.391       .  A
C1031      H1037   1.083       .  S
C1032      C1033   1.404       .  A
C1033      C1034   1.397       .  A
C1033      H1038   1.083       .  S
C1034      C1035   1.404       .  A
C1034      H1039   1.083       .  S
C1035      C1036   1.403       .  A
C1036      H1040   1.083       .  S
C1041      C1042   1.217   1_565  T
C1043      C1044   1.402       .  A
C1043      C1048   1.400       .  A
C1043      H1049   1.083       .  S
C1044      C1045   1.400       .  A
C1045      C1046   1.386       .  A
C1045      H1050   1.084       .  S
C1046      C1047   1.399       .  A
C1046      H1051   1.084       .  S
C1047      C1048   1.404       .  A
C1048      H1052   1.083       .  S
C1053      C1054   1.211       .  T
C1055      C1056   1.404       .  A
C1055      C1060   1.397       .  A
C1055      H1061   1.083       .  S
C1056      C1057   1.401       .  A
C1057      C1058   1.388       .  A
C1057      H1062   1.083       .  S
C1058      C1059   1.401       .  A
C1058      H1063   1.083       .  S
C1059      C1060   1.404       .  A
C1060      H1064   1.083       .  S
C1065      C1066   1.209       .  T
C1067      C1068   1.404       .  A
C1067      C1072   1.399       .  A
C1067      H1073   1.083       .  S
C1068      C1069   1.398       .  A
C1069      C1070   1.385       .  A
C1069      H1074   1.084       .  S
C1070      C1071   1.400       .  A
C1070      H1075   1.084       .  S
C1071      C1072   1.403       .  A
C1072      H1076   1.083       .  S
C1077      C1078   1.401       .  A
C1077      C1082   1.389       .  A
C1077      H1083   1.083       .  S
C1078      C1079   1.404       .  A
C1079      C1080   1.395       .  A
C1079      H1084   1.083       .  S
C1080      C1081   1.402       .  A
C1080      H1085   1.083       .  S
C1081      C1082   1.402       .  A
C1082      H1086   1.083       .  S
C1087      C1088   1.404       .  A
C1087      C1092   1.397       .  A
C1087      H1093   1.083       .  S
C1088      C1089   1.401       .  A
C1089      C1090   1.388       .  A
C1089      H1094   1.083       .  S
C1090      C1091   1.401       .  A
C1090      H1095   1.083       .  S
C1091      C1092   1.403       .  A
C1092      H1096   1.083       .  S
C1097      C1098   1.209       .  T
C1099      H1101   1.081   1_545  S
C1099      C1100   1.353       .  D
C1100      H1102   1.087       .  S
C1103      H1105   1.082       .  S
C1103      C1104   1.344   1_554  D
C1104      H1106   1.085       .  S
C1107      H1109   1.087       .  S
C1107      C1108   1.354       .  D
C1108      H1110   1.084       .  S
C1111      H1113   1.086       .  S
C1111      C1112   1.345       .  D
C1112      H1114   1.084   1_556  S
C1115      C1116   1.217       .  T
C1117      H1119   1.085       .  S
C1117      C1118   1.345       .  D
C1118      H1120   1.087       .  S
C1121      H1123   1.082       .  S
C1121      C1122   1.347       .  D
C1122      H1124   1.084       .  S
C1125      H1127   1.085   1_554  S
C1125      C1126   1.340       .  D
C1126      H1128   1.085       .  S
C1129      H1131   1.086       .  S
C1129      C1130   1.339       .  D
C1130      H1132   1.087       .  S
C1133      H1135   1.084       .  S
C1133      C1134   1.350   1_554  D
C1134      H1136   1.082       .  S
C1137      H1139   1.086       .  S
C1137      C1138   1.342       .  D
C1138      H1140   1.086       .  S
C1141      H1143   1.084       .  S
C1141      C1142   1.352       .  D
C1142      H1144   1.087       .  S
C1145      C1146   1.215       .  T
C1147      H1149   1.085       .  S
C1147      C1148   1.348       .  D
C1148      H1150   1.085       .  S
C1151      H1153   1.082       .  S
C1151      C1152   1.346       .  D
C1152      H1154   1.087       .  S
C1155      H1157   1.085       .  S
C1155      C1156   1.344       .  D
C1156      H1158   1.084   1_556  S
C1159      H1161   1.086       .  S
C1159      C1160   1.349   1_554  D
C1160      H1162   1.081       .  S
C1163      C1164   1.211   1_545  T
C1165      H1167   1.087       .  S
C1165      C1166   1.335       .  D
C1166      H1168   1.086       .  S
C1169      H1171   1.083       .  S
C1169      C1170   1.345       .  D
C1170      H1172   1.084       .  S
C1173      H1175   1.087       .  S
C1173      C1174   1.356       .  D
C1174      H1176   1.083       .  S
C1177      C1178   1.217       .  T
C1179      H1181   1.085       .  S
C1179      C1180   1.356       .  D
C1180      H1182   1.085       .  S
C1183      H1185   1.084       .  S
C1183      C1184   1.353   1_556  D
C1184      H1186   1.082       .  S
C1187      H1189   1.087       .  S
C1187      C1188   1.349       .  D
C1188      H1190   1.085       .  S
C1191      C1192   1.207   1_655  T
C1193      H1195   1.083       .  S
C1193      C1194   1.352       .  D
C1194      H1196   1.082       .  S
C1197      H1199   1.085       .  S
C1197      C1198   1.353       .  D
C1198      H1200   1.087       .  S
C1201      H1203   1.085       .  S
C1201      C1202   1.345   1_556  D
C1202      H1204   1.084       .  S
C1205      H1207   1.085       .  S
C1205      C1206   1.344       .  D
C1206      H1208   1.086       .  S
C1209      H1211   1.086       .  S
C1209      C1210   1.344   1_556  D
C1210      H1212   1.086       .  S
C1213      H1215   1.082       .  S
C1213      C1214   1.351       .  D
C1214      H1216   1.084   1_556  S
C1217      C1218   1.204       .  T
C1219      H1221   1.086       .  S
C1219      C1220   1.336       .  D
C1220      H1222   1.086       .  S
C1223      H1225   1.083       .  S
C1223      C1224   1.350       .  D
C1224      H1226   1.087   1_655  S
C1227      H1229   1.085       .  S
C1227      C1228   1.341       .  D
C1228      H1230   1.086       .  S
C1231      H1233   1.084       .  S
C1231      C1232   1.350       .  D
C1232      H1234   1.087       .  S
C1235      H1237   1.086       .  S
C1235      C1236   1.341       .  D
C1236      H1238   1.085   1_554  S
C1239      H1241   1.084       .  S
C1239      C1240   1.353       .  D
C1240      H1242   1.083   1_554  S
C1243      C1244   1.221       .  T
C1245      H1247   1.086       .  S
C1245      C1246   1.347       .  D
C1246      H1248   1.085       .  S
C1249      H1251   1.085       .  S
C1249      C1250   1.341       .  D
C1250      H1252   1.083       .  S
C1253      H1255   1.088       .  S
C1253      C1254   1.348       .  D
C1254      H1256   1.083       .  S
C1257      C1258   1.209       .  T
C1259      C1260   1.215       .  T
C1261      C1262   1.403       .  A
C1261      C1266   1.395       .  A
C1261      H1267   1.083       .  S
C1262      C1263   1.401       .  A
C1263      C1264   1.387       .  A
C1263      H1268   1.083       .  S
C1264      C1265   1.401       .  A
C1264      H1269   1.083       .  S
C1265      C1266   1.402       .  A
C1266      H1270   1.083       .  S
C1271      C1272   1.205       .  T
C1273      C1274   1.204       .  T
C1275      C1276   1.403       .  A
C1275      C1280   1.398       .  A
C1275      H1281   1.083       .  S
C1276      C1277   1.401       .  A
C1277      C1278   1.386       .  A
C1277      H1282   1.084       .  S
C1278      C1279   1.400       .  A
C1278      H1283   1.084       .  S
C1279      C1280   1.404       .  A
C1280      H1284   1.083       .  S
C1285      C1286   1.218       .  T
C1287      C1288   1.220       .  T
C1289      C1290   1.403       .  A
C1289      C1294   1.398       .  A
C1289      H1295   1.083       .  S
C1290      C1291   1.400       .  A
C1291      C1292   1.385       .  A
C1291      H1296   1.084       .  S
C1292      C1293   1.401       .  A
C1292      H1297   1.083       .  S
C1293      C1294   1.404       .  A
C1294      H1298   1.083       .  S
C1299      C1300   1.215       .  T
C1301      C1302   1.401       .  A
C1301      C1306   1.388       .  A
C1301      H1307   1.083       .  S
C1302      C1303   1.402       .  A
C1303      C1304   1.392       .  A
C1303      H1308   1.083       .  S
C1304      C1305   1.402       .  A
C1304      H1309   1.083       .  S
C1305      C1306   1.402       .  A
C1306      H1310   1.083       .  S
C1311      C1312   1.210       .  T
C1313      C1314   1.404       .  A
C1313      C1318   1.397       .  A
C1313      H1319   1.083       .  S
C1314      C1315   1.400       .  A
C1315      C1316   1.386       .  A
C1315      H1320   1.083       .  S
C1316      C1317   1.401       .  A
C1316      H1321   1.083       .  S
C1317      C1318   1.403       .  A
C1318      H1322   1.083       .  S
C1323      C1324   1.404       .  A
C1323      C1328   1.399       .  A
C1323      H1329   1.083       .  S
C1324      C1325   1.401       .  A
C1325      C1326   1.385       .  A
C1325      H1330   1.083       .  S
C1326      C1327   1.401       .  A
C1326      H1331   1.084       .  S
C1327      C1328   1.404       .  A
C1328      H1332   1.083       .  S
C1333      C1334   1.217       .  T
C1335      C1336   1.209       .  T
C1337      H1339   1.088       .  S
C1337      C1338   1.347       .  D
C1338      H1340   1.084       .  S
C1341      C1342   1.210       .  T
C1343      C1344   1.211       .  T
C1345      H1347   1.085       .  S
C1345      C1346   1.347       .  D
C1346      H1348   1.084       .  S
C1349      H1351   1.088       .  S
C1349      C1350   1.349       .  D
C1350      H1352   1.082       .  S
C1353      C1354   1.202       .  T
C1355      H1357   1.083       .  S
C1355      C1356   1.344       .  D
C1356      H1358   1.086       .  S
C1359      C1360   1.213       .  T
C1361      H1363   1.081       .  S
C1361      C1362   1.348       .  D
C1362      H1364   1.084       .  S
C1365      H1367   1.088       .  S
C1365      C1366   1.344       .  D
C1366      H1368   1.084       .  S
C1369      C1370   1.216       .  T
C1371      H1373   1.086       .  S
C1371      C1372   1.345       .  D
C1372      H1374   1.085       .  S
C1375      C1376   1.213       .  T
C1377      H1379   1.086       .  S
C1377      C1378   1.336       .  D
C1378      H1380   1.087       .  S
C1381      H1383   1.087       .  S
C1381      C1382   1.353       .  D
C1382      H1384   1.084       .  S
C1385      C1386   1.215       .  T
C1387      H1389   1.086       .  S
C1387      C1388   1.345       .  D
C1388      H1390   1.086       .  S
C1391      H1393   1.085       .  S
C1391      C1392   1.345       .  D
C1392      H1394   1.083       .  S
C1395      C1396   1.202       .  T
C1397      H1399   1.087       .  S
C1397      C1398   1.338       .  D
C1398      H1400   1.087       .  S
C1401      H1403   1.085       .  S
C1401      C1402   1.356       .  D
C1402      H1404   1.085       .  S
C1405      C1406   1.221       .  T
C1407      H1409   1.085       .  S
C1407      C1408   1.347       .  D
C1408      H1410   1.085       .  S
C1411      H1413   1.085       .  S
C1411      C1412   1.342       .  D
C1412      H1414   1.084       .  S
C1415      C1416   1.209       .  T
C1417      H1419   1.085       .  S
C1417      C1418   1.337       .  D
C1418      H1420   1.085       .  S
C1421      H1423   1.086       .  S
C1421      C1422   1.355       .  D
C1422      H1424   1.080       .  S
C1425      H1427   1.088       .  S
C1425      C1426   1.342       .  D
C1426      H1428   1.084       .  S
C1429      C1430   1.216       .  T
C1431      C1432   1.218       .  T
C1433      C1434   1.212       .  T
C1435      C1436   1.211       .  T
C1437      C1438   1.404       .  A
C1437      C1442   1.398       .  A
C1437      H1443   1.083       .  S
C1438      C1439   1.401       .  A
C1439      C1440   1.387       .  A
C1439      H1444   1.083       .  S
C1440      C1441   1.402       .  A
C1440      H1445   1.083       .  S
C1441      C1442   1.403       .  A
C1442      H1446   1.083       .  S
C1447      C1448   1.217       .  T
C1449      C1450   1.218       .  T
C1451      C1452   1.403       .  A
C1451      C1456   1.396       .  A
C1451      H1457   1.083       .  S
C1452      C1453   1.402       .  A
C1453      C1454   1.388       .  A
C1453      H1458   1.083       .  S
C1454      C1455   1.401       .  A
C1454      H1459   1.083       .  S
C1455      C1456   1.403       .  A
C1456      H1460   1.083       .  S
C1461      C1462   1.212       .  T
C1463      C1464   1.212       .  T
C1465      C1466   1.401       .  A
C1465      C1470   1.386       .  A
C1465      H1471   1.083       .  S
C1466      C1467   1.404       .  A
C1467      C1468   1.399       .  A
C1467      H1472   1.083       .  S
C1468      C1469   1.404       .  A
C1468      H1473   1.083       .  S
C1469      C1470   1.401       .  A
C1470      H1474   1.083       .  S
C1475      C1476   1.208       .  T
C1477      C1478   1.208       .  T
C1479      C1480   1.404       .  A
C1479      C1484   1.396       .  A
C1479      H1485   1.083       .  S
C1480      C1481   1.401       .  A
C1481      C1482   1.388       .  A
C1481      H1486   1.083       .  S
C1482      C1483   1.402       .  A
C1482      H1487   1.083       .  S
C1483      C1484   1.402       .  A
C1484      H1488   1.083       .  S
C1489      C1490   1.213       .  T
C1491      C1492   1.215       .  T
C1493      C1494   1.403       .  A
C1493      C1498   1.395       .  A
C1493      H1499   1.083       .  S
C1494      C1495   1.401       .  A
C1495      C1496   1.387       .  A
C1495      H1500   1.083       .  S
C1496      C1497   1.401       .  A
C1496      H1501   1.083       .  S
C1497      C1498   1.403       .  A
C1498      H1502   1.083       .  S
C1503      C1504   1.403       .  A
C1503      C1508   1.398       .  A
C1503      H1509   1.083       .  S
C1504      C1505   1.401       .  A
C1505      C1506   1.387       .  A
C1505      H1510   1.084       .  S
C1506      C1507   1.400       .  A
C1506      H1511   1.083       .  S
C1507      C1508   1.404       .  A
C1508      H1512   1.083       .  S
