geometry optimzed in LAMMPS
_audit_creation_date              2020-11-30 
_audit_creation_method            'lammps2cif' 
_symmetry_space_group_name_H-M    'P1' 
_symmetry_Int_Tables_number       1 
_symmetry_cell_setting            triclinic 
loop_ 
_symmetry_equiv_pos_as_xyz 
  x,y,z 
_cell_length_a                    60.21878295 
_cell_length_b                    60.162533206989025 
_cell_length_c                    60.0588170964987 
_cell_angle_alpha                 90.0815974799334 
_cell_angle_beta                  90.09268095636396 
_cell_angle_gamma                 90.54407458003539 
loop_ 
_atom_site_label 
_atom_site_type_symbol 
_atom_site_fract_x 
_atom_site_fract_y 
_atom_site_fract_z 
_atom_site_charge 
O1          O  0.32046441  0.85383886  0.50032875    -0.56300
C2          C  0.35256781  0.89789884  0.55285009     0.76300
O3          O  0.35043955  0.82494563  0.55676024    -0.57500
C4          C  0.32373848  0.83325417  0.49669687     0.76300
C5          C  0.39086520  0.85933500  0.50278994     0.78700
Cd6        Cd  0.35074819  0.85622666  0.52886753     1.37500
O7          O  0.33756634  0.89449993  0.53823267    -0.56300
O8          O  0.37326937  0.86963129  0.49774555    -0.55100
C9          C  0.33101315  0.83009476  0.56321916     0.78600
O10         O  0.39016720  0.84770020  0.52047927    -0.57500
O11         O  0.36642695  0.88241182  0.55567771    -0.56000
O12         O  0.33939176  0.82421405  0.50730834    -0.56000
O13         O  0.32266433  0.84752316  0.55515529    -0.55100
O14         O  0.24689141  0.72944385  0.49760624    -0.56300
C15         C  0.21726715  0.68912110  0.55411501     0.76300
O16         O  0.22091236  0.75730271  0.55848568    -0.57500
C17         C  0.24500072  0.75038751  0.49507543     0.76300
C18         C  0.17904688  0.72934502  0.50268199     0.78700
Cd19       Cd  0.21908900  0.72912806  0.52815999     1.37500
O20         O  0.23124897  0.69110853  0.53835236    -0.56300
O21         O  0.19443451  0.71547638  0.49938568    -0.55100
C22         C  0.24186270  0.75500531  0.56033601     0.78600
O23         O  0.18171603  0.74294257  0.51874145    -0.57500
O24         O  0.20383314  0.70500795  0.55676069    -0.56000
O25         O  0.23094796  0.76030748  0.50704509    -0.56000
O26         O  0.25105225  0.74063296  0.54814986    -0.55100
O27         O  0.26506167  0.82639962  0.61030593    -0.56300
C28         C  0.25568792  0.76817514  0.57547458     0.76300
O29         O  0.32281910  0.79767398  0.58567068    -0.57500
C30         C  0.26518158  0.82531960  0.63131268     0.76300
C31         C  0.30170050  0.76141579  0.63690815     0.78700
Cd32       Cd  0.28534135  0.79199086  0.60447193     1.37500
O33         O  0.24785012  0.78155008  0.58962449    -0.56300
O34         O  0.28657810  0.75606059  0.62320739    -0.55100
C35         C  0.31737345  0.81657038  0.57829418     0.78600
O36         O  0.31013984  0.78067270  0.63482068    -0.57500
O37         O  0.27657114  0.76641302  0.57477763    -0.56000
O38         O  0.27280377  0.80772203  0.63977180    -0.56000
O39         O  0.29835573  0.82333938  0.58350139    -0.55100
O40         O  0.26705513  0.82209501  0.43050935    -0.56300
C41         C  0.31024932  0.81988704  0.48117512     0.76300
O42         O  0.27366797  0.75509608  0.46774923    -0.57500
C43         C  0.25004637  0.81089316  0.42482913     0.76300
C44         C  0.31428933  0.77241739  0.41909331     0.78700
Cd45       Cd  0.28451376  0.79171399  0.45120781     1.37500
O46         O  0.29529536  0.82806849  0.46901666    -0.56300
O47         O  0.31026529  0.76322121  0.43756482    -0.55100
C48         C  0.25851241  0.76342092  0.47959724     0.78600
O49         O  0.30410550  0.79026868  0.41520572    -0.57500
O50         O  0.31316108  0.79920538  0.47942772    -0.56000
O51         O  0.24932985  0.79081525  0.43111230    -0.56000
O52         O  0.25563372  0.78413917  0.47801095    -0.55100
O53         O  0.53304970  0.84671689  0.39022117    -0.56300
C54         C  0.57404645  0.83051409  0.33037880     0.76300
O55         O  0.51067474  0.85453108  0.32411391    -0.57500
C56         C  0.51714304  0.86038480  0.39197190     0.76300
C57         C  0.56613087  0.90004741  0.34554490     0.78700
Cd58       Cd  0.54217784  0.85824425  0.35096907     1.37500
O59         O  0.57291020  0.83060342  0.35158800    -0.56300
O60         O  0.57075152  0.88614609  0.36069452    -0.55100
C61         C  0.50979272  0.83349872  0.32652908     0.78600
O62         O  0.54971804  0.89512439  0.33307165    -0.57500
O63         O  0.56170866  0.84381805  0.31993141    -0.56000
O64         O  0.51420043  0.87331751  0.37561928    -0.56000
O65         O  0.52267051  0.82499714  0.34072033    -0.55100
O66         O  0.55053089  0.68784975  0.22233681    -0.56300
C67         C  0.51074153  0.74838013  0.24527951     0.76300
O68         O  0.57247256  0.75839268  0.22161406    -0.57500
C69         C  0.56921340  0.68860354  0.21243332     0.76300
C70         C  0.51678355  0.73043052  0.17676010     0.78700
Cd71       Cd  0.54326763  0.72869157  0.21691201     1.37500
O72         O  0.51522365  0.72785440  0.24770772    -0.56300
O73         O  0.51337749  0.71692263  0.19259683    -0.55100
C74         C  0.57569161  0.75316983  0.24195282     0.78600
O75         O  0.53387455  0.74297774  0.17859038    -0.57500
O76         O  0.52032143  0.75857963  0.22951873    -0.56000
O77         O  0.57474214  0.70721486  0.20410865    -0.56000
O78         O  0.56491923  0.73663791  0.24943701    -0.55100
O79         O  0.45623878  0.80687501  0.25399206    -0.56300
C80         C  0.49530236  0.81891618  0.31333278     0.76300
O81         O  0.43842366  0.76147385  0.29790074    -0.57500
C82         C  0.43648445  0.81013533  0.26018584     0.76300
C83         C  0.49580578  0.76069187  0.26006703     0.78700
Cd84       Cd  0.46814781  0.78815503  0.28824452     1.37500
O85         O  0.47988166  0.82607936  0.30107130    -0.56300
O86         O  0.49280223  0.78118548  0.25701928    -0.55100
C87         C  0.44005806  0.76420087  0.31876664     0.78600
O88         O  0.48586492  0.75204713  0.27650828    -0.57500
O89         O  0.49804264  0.79812045  0.31365179    -0.56000
O90         O  0.43177256  0.80434256  0.27985292    -0.56000
O91         O  0.45573427  0.77671676  0.32540742    -0.55100
O92         O  0.60252649  0.78183808  0.25091848    -0.56300
C93         C  0.64615113  0.82276283  0.27130597     0.76300
O94         O  0.60279190  0.80333292  0.32644867    -0.57500
C95         C  0.59041169  0.76569264  0.25708973     0.76300
C96         C  0.64631579  0.75691585  0.30788274     0.78700
Cd97       Cd  0.61704671  0.78974314  0.28957794     1.37500
O98         O  0.63779617  0.80766043  0.25907311    -0.56300
O99         O  0.65335735  0.77511649  0.30004422    -0.55100
C100        C  0.58849886  0.81581156  0.31762518     0.78600
O101        O  0.62546899  0.75436398  0.30855683    -0.57500
O102        O  0.64102438  0.82223898  0.29172168    -0.56000
O103        O  0.59098311  0.76088314  0.27756797    -0.56000
O104        O  0.58703861  0.81524118  0.29665936    -0.55100
O105        O  0.75761057  0.57826788  0.19094828    -0.56300
C106        C  0.72554893  0.52627950  0.14733910     0.76300
O107        O  0.73244250  0.51674512  0.21787744    -0.57500
C108        C  0.75692833  0.57894526  0.21215117     0.76300
C109        C  0.68808386  0.57214284  0.19556028     0.78700
Cd110      Cd  0.72916009  0.54761825  0.19026002     1.37500
O111        O  0.74026899  0.54124275  0.15061310    -0.56300
O112        O  0.70310189  0.57734904  0.18167276    -0.55100
C113        C  0.75278051  0.51355645  0.21313139     0.78600
O114        O  0.69161497  0.55482186  0.20712744    -0.57500
O115        O  0.71249286  0.52225227  0.16341193    -0.56000
O116        O  0.74342074  0.56603382  0.22182609    -0.56000
O117        O  0.76087641  0.52472308  0.19723589    -0.55100
O118        O  0.86073792  0.51539634  0.28883641    -0.56300
C119        C  0.90411609  0.56973841  0.31970155     0.76300
O120        O  0.83244155  0.57534568  0.31721127    -0.57500
C121        C  0.83962268  0.51391582  0.28960484     0.76300
C122        C  0.86031101  0.51987606  0.35758042     0.78700
Cd123      Cd  0.86170410  0.54619217  0.31725118     1.37500
O124        O  0.89991178  0.55666865  0.30353284    -0.56300
O125        O  0.87228050  0.51539861  0.34085113    -0.55100
C126        C  0.83589464  0.58024739  0.29687555     0.78600
O127        O  0.84880546  0.53747702  0.35617831    -0.57500
O128        O  0.88937843  0.57093053  0.33468328    -0.56000
O129        O  0.82980772  0.52649684  0.30319391    -0.56000
O130        O  0.85190208  0.57075444  0.28728116    -0.55100
O131        O  0.77656955  0.64116094  0.28843501    -0.56300
C132        C  0.82172463  0.59533055  0.28414161     0.76300
O133        O  0.78233584  0.60947701  0.21815433    -0.57500
C134        C  0.75835994  0.64500527  0.27861529     0.76300
C135        C  0.82060758  0.65872532  0.24036444     0.78700
Cd136      Cd  0.79363233  0.62252446  0.25643189     1.37500
O137        O  0.80414981  0.60357326  0.29194917    -0.56300
O138        O  0.80398656  0.66186947  0.25272477    -0.55100
C139        C  0.77060550  0.59373420  0.22587460     0.78600
O140        O  0.82392618  0.63889572  0.23433379    -0.57500
O141        O  0.82621909  0.59992181  0.26412800    -0.56000
O142        O  0.75646021  0.63779361  0.25887373    -0.56000
O143        O  0.77054616  0.59130686  0.24675190    -0.55100
O144        O  0.76792063  0.44911692  0.26904886    -0.56300
C145        C  0.76711606  0.49839429  0.22557629     0.76300
O146        O  0.83471718  0.48482924  0.26231201    -0.57500
C147        C  0.78094852  0.44172109  0.28381489     0.76300
C148        C  0.81335260  0.43930212  0.21654573     0.78700
Cd149      Cd  0.79750120  0.47018927  0.24946137     1.37500
O150        O  0.76052978  0.48754666  0.24236172    -0.56300
O151        O  0.79771104  0.43493566  0.22987442    -0.55100
C152        C  0.82633840  0.49884719  0.27552290     0.78600
O153        O  0.82255218  0.45819035  0.21871283    -0.57500
O154        O  0.78724965  0.49616811  0.22017494    -0.56000
O155        O  0.80118508  0.44733178  0.28215137    -0.56000
O156        O  0.80537918  0.49960158  0.27612762    -0.55100
O157        O  0.71731691  0.07838469  0.28852758    -0.56300
C158        C  0.67996271  0.02350095  0.32591299     0.76300
O159        O  0.74977692  0.02462472  0.31834358    -0.57500
C160        C  0.73752489  0.08426388  0.29139069     0.76300
C161        C  0.71868774  0.07938171  0.36013001     0.78700
Cd162      Cd  0.71866385  0.05184565  0.32042695     1.37500
O163        O  0.67909814  0.04011045  0.31279891    -0.56300
O164        O  0.70548888  0.08226521  0.34391288    -0.55100
C165        C  0.74579559  0.02006248  0.29798421     0.78600
O166        O  0.73165704  0.06284896  0.35859485    -0.57500
O167        O  0.69804992  0.02107224  0.33641323    -0.56000
O168        O  0.74760537  0.07627208  0.30801813    -0.56000
O169        O  0.72920359  0.02930492  0.28910957    -0.55100
O170        O  0.82859207  0.05398004  0.14639291    -0.56300
C171        C  0.81994186  0.01563844  0.20864953     0.76300
O172        O  0.88174059  0.04394806  0.19982558    -0.57500
C173        C  0.84095228  0.07080100  0.14254805     0.76300
C174        C  0.81920183  0.08213194  0.20982390     0.78700
Cd175      Cd  0.84310601  0.04927677  0.18511538     1.37500
O176        O  0.81582027  0.01778854  0.18795367    -0.56300
O177        O  0.81001495  0.06790808  0.19726077    -0.55100
C178        C  0.88627095  0.02823882  0.18641768     0.78600
O179        O  0.84033734  0.08203411  0.21079297    -0.57500
O180        O  0.83542822  0.02740362  0.21681124    -0.56000
O181        O  0.85422915  0.07666051  0.15791674    -0.56000
O182        O  0.87145555  0.02346560  0.17211071    -0.55100
O183        O  0.79639795  0.94847103  0.28491108    -0.56300
C184        C  0.75952178  0.00507501  0.28459140     0.76300
O185        O  0.79357993  0.98652512  0.21705854    -0.57500
C186        C  0.81655874  0.94892933  0.27891970     0.76300
C187        C  0.75321482  0.94304690  0.24003210     0.78700
Cd188      Cd  0.78415813  0.97532959  0.25629506     1.37500
O189        O  0.77556842  0.99416989  0.29253994    -0.56300
O190        O  0.77389304  0.93989540  0.23853950    -0.55100
C191        C  0.80714579  0.00135490  0.22360518     0.78600
O192        O  0.74721966  0.96171562  0.24737046    -0.57500
O193        O  0.75564045  0.00261708  0.26404619    -0.56000
O194        O  0.82147299  0.96224406  0.26341338    -0.56000
O195        O  0.80920179  0.00396680  0.24437063    -0.55100
O196        O  0.77301036  0.16036911  0.26979720    -0.56300
C197        C  0.80537212  0.09750609  0.22265248     0.76300
O198        O  0.74095640  0.10770974  0.25906929    -0.57500
C199        C  0.79195049  0.15934175  0.27887620     0.76300
C200        C  0.76131774  0.15673581  0.21383448     0.78700
Cd201      Cd  0.77643119  0.12666475  0.24736387     1.37500
O202        O  0.81342383  0.11214750  0.23553712    -0.56300
O203        O  0.74750701  0.14331345  0.22257552    -0.55100
C204        C  0.74965795  0.09900046  0.27613330     0.78600
O205        O  0.78132645  0.15504376  0.21991397    -0.57500
O206        O  0.78441500  0.09639765  0.22141475    -0.56000
O207        O  0.80380416  0.14290849  0.27348107    -0.56000
O208        O  0.77002233  0.10306614  0.27941987    -0.55100
O209        O  0.02256323  0.91287456  0.21739810    -0.56300
C210        C  0.06651562  0.85307298  0.23724698     0.76300
O211        O  0.00495169  0.84356346  0.21419910    -0.57500
C212        C  0.00554950  0.91202225  0.20474379     0.76300
C213        C  0.06118746  0.87264119  0.17080875     0.78700
Cd214      Cd  0.03361900  0.87339203  0.21016186     1.37500
O215        O  0.06364706  0.87400629  0.23910480    -0.56300
O216        O  0.06221785  0.88811493  0.18514886    -0.55100
C217        C  0.00257609  0.84710771  0.23501521     0.78600
O218        O  0.04612689  0.85791111  0.17366405    -0.57500
O219        O  0.05523802  0.84289554  0.22258260    -0.56000
O220        O  0.00226458  0.89378335  0.19451872    -0.56000
O221        O  0.01334900  0.86329231  0.24338736    -0.55100
O222        O  0.09684063  0.77328168  0.28715938    -0.56300
C223        C  0.13726237  0.79043605  0.24582652     0.76300
O224        O  0.09628630  0.84891263  0.26377407    -0.57500
C225        C  0.08388749  0.77945271  0.30243470     0.76300
C226        C  0.13908412  0.83299057  0.30949961     0.78700
Cd227      Cd  0.10980235  0.81191236  0.27780786     1.37500
O228        O  0.12476906  0.80644069  0.24075067    -0.56300
O229        O  0.11828876  0.83224769  0.31221636    -0.55100
C230        C  0.08145464  0.84021602  0.25151324     0.78600
O231        O  0.14622818  0.82569089  0.29112715    -0.57500
O232        O  0.13694311  0.78421451  0.26596025    -0.56000
O233        O  0.08288854  0.80012490  0.30596752    -0.56000
O234        O  0.07976453  0.81926722  0.25199841    -0.55100
O235        O  0.04749215  0.74530754  0.37915699    -0.56300
C236        C  0.00574325  0.76422075  0.31920615     0.76300
O237        O  0.06839406  0.74323394  0.31071414    -0.57500
C238        C  0.06527471  0.73401017  0.37928760     0.76300
C239        C  0.01515476  0.69505524  0.33542684     0.78700
Cd240      Cd  0.03892232  0.73711582  0.33920469     1.37500
O241        O  0.00744756  0.76414440  0.34038072    -0.56300
O242        O  0.01013053  0.71012136  0.34926613    -0.55100
C243        C  0.07005215  0.76390185  0.31526569     0.78600
O244        O  0.03227254  0.69884833  0.32354460    -0.57500
O245        O  0.01818500  0.75121412  0.30846562    -0.56000
O246        O  0.06981685  0.72375012  0.36144333    -0.56000
O247        O  0.05851668  0.77114321  0.33126240    -0.55100
O248        O  0.97758928  0.81653767  0.24205992    -0.56300
C249        C  0.93518886  0.77397859  0.25613268     0.76300
O250        O  0.97624178  0.79089489  0.31592421    -0.57500
C251        C  0.98863694  0.83296849  0.24939187     0.76300
C252        C  0.92986696  0.83429666  0.29928542     0.78700
Cd253      Cd  0.96217727  0.80562969  0.27923131     1.37500
O254        O  0.93703854  0.79372870  0.24902936    -0.56300
O255        O  0.92485845  0.81497436  0.29258379    -0.55100
C256        C  0.99075252  0.77882260  0.30680959     0.78600
O257        O  0.95024424  0.83950101  0.29869597    -0.57500
O258        O  0.94620822  0.76912048  0.27336263    -0.56000
O259        O  0.98760213  0.83646807  0.27012859    -0.56000
O260        O  0.99216347  0.77992395  0.28585976    -0.55100
O261        O  0.35359740  0.76205408  0.00405646    -0.56300
C262        C  0.39662374  0.73380379  0.05864276     0.76300
O263        O  0.32658504  0.73478484  0.06571166    -0.57500
C264        C  0.33285771  0.75890013  0.00093205     0.76300
C265        C  0.35404006  0.69342670  0.00978055     0.78700
Cd266      Cd  0.35471581  0.73418547  0.03485122     1.37500
O267        O  0.39273522  0.74891156  0.04439714    -0.56300
O268        O  0.36715696  0.70950161  0.00558679    -0.55100
C269        C  0.32804792  0.75583088  0.06776818     0.78600
O270        O  0.34165305  0.69555937  0.02679843    -0.57500
O271        O  0.38176242  0.71892270  0.06085256    -0.56000
O272        O  0.32347256  0.74383587  0.01227926    -0.56000
O273        O  0.34215398  0.76574640  0.05569665    -0.55100
O274        O  0.19019449  0.85913780  0.04367333    -0.56300
C275        C  0.25127968  0.84351545  0.00411418     0.76300
O276        O  0.24449153  0.90819726  0.02683608    -0.57500
C277        C  0.18812026  0.87181953  0.06052822     0.76300
C278        C  0.25250780  0.84526483  0.07088682     0.78700
Cd279      Cd  0.22973216  0.87018605  0.03681019     1.37500
O280        O  0.23022774  0.84244916  0.00605823    -0.56300
O281        O  0.23728317  0.83739843  0.05855341    -0.55100
C282        C  0.23003185  0.91155391  0.01172128     0.78600
O283        O  0.25699539  0.86593675  0.06870385    -0.57500
O284        O  0.26151038  0.85749423  0.01620684    -0.56000
O285        O  0.20471704  0.88415401  0.06519264    -0.56000
O286        O  0.21551914  0.89637751  0.00907404    -0.55100
O287        O  0.25509733  0.77454728  0.12078013    -0.56300
C288        C  0.31414477  0.76889444  0.08292877     0.76300
O289        O  0.28051172  0.83621417  0.09842756    -0.57500
C290        C  0.25773941  0.77478097  0.14167090     0.76300
C291        C  0.32178670  0.81256378  0.14325041     0.78700
Cd292      Cd  0.28861747  0.79701101  0.11239536     1.37500
O293        O  0.30024289  0.76025739  0.09619344    -0.56300
O294        O  0.32446383  0.79603030  0.13053835    -0.55100
C295        C  0.26459507  0.83014024  0.08596821     0.78600
O296        O  0.30362868  0.82290728  0.14123912    -0.57500
O297        O  0.31557295  0.78987847  0.08304512    -0.56000
O298        O  0.27507253  0.78439286  0.14874535    -0.56000
O299        O  0.25983953  0.80964996  0.08628217    -0.55100
O300        O  0.26002410  0.77379252  0.95103156    -0.56300
C301        C  0.26380828  0.82898490  0.98916071     0.76300
O302        O  0.32706522  0.78916555  0.97563821    -0.57500
C303        C  0.26324428  0.77463039  0.93023033     0.76300
C304        C  0.31120099  0.83110760  0.93091961     0.78700
Cd305      Cd  0.28993669  0.80076706  0.96054939     1.37500
O306        O  0.25447658  0.81583605  0.97554992    -0.56300
O307        O  0.29921369  0.83751206  0.94693834    -0.55100
C308        C  0.31938435  0.77259010  0.98603834     0.78600
O309        O  0.31440745  0.81038747  0.92933372    -0.57500
O310        O  0.28480299  0.82882647  0.98965461    -0.56000
O311        O  0.27802129  0.78815700  0.92370445    -0.56000
O312        O  0.29881556  0.76889814  0.98404066    -0.55100
O313        O  0.33034548  0.56036832  0.88761436    -0.56300
C314        C  0.31153079  0.51813604  0.82659120     0.76300
O315        O  0.33145123  0.58229430  0.81930815    -0.57500
C316        C  0.34137965  0.57854900  0.88730014     0.76300
C317        C  0.38029135  0.53055501  0.84235258     0.78700
Cd318      Cd  0.33757881  0.55222488  0.84717063     1.37500
O319        O  0.30950813  0.52090043  0.84756173    -0.56300
O320        O  0.36644980  0.52531239  0.85741629    -0.55100
C321        C  0.31081088  0.58365563  0.82371605     0.78600
O322        O  0.37496862  0.54670812  0.82983483    -0.57500
O323        O  0.32586363  0.52997429  0.81668204    -0.56000
O324        O  0.35112375  0.58328403  0.86920527    -0.56000
O325        O  0.30333131  0.57123473  0.83900012    -0.55100
O326        O  0.16954201  0.53732524  0.72514988    -0.56300
C327        C  0.22505656  0.58420358  0.74533488     0.76300
O328        O  0.24029408  0.52293042  0.72081098    -0.57500
C329        C  0.16898511  0.52266763  0.70985141     0.76300
C330        C  0.21169295  0.57609357  0.67800175     0.78700
Cd331      Cd  0.20863042  0.54941458  0.71740124     1.37500
O332        O  0.20499228  0.57777366  0.74796015    -0.56300
O333        O  0.19854786  0.58023446  0.69392599    -0.55100
C334        C  0.23605869  0.51877165  0.74114956     0.78600
O335        O  0.22307835  0.55843725  0.67962935    -0.57500
O336        O  0.23587637  0.57549747  0.72959807    -0.56000
O337        O  0.18618381  0.52132268  0.69780272    -0.56000
O338        O  0.21908628  0.52779070  0.74942167    -0.55100
O339        O  0.29734828  0.44192474  0.78644872    -0.56300
C340        C  0.24973627  0.50424423  0.75504480     0.76300
O341        O  0.24993282  0.45132153  0.80958802    -0.57500
C342        C  0.30484513  0.44275532  0.76681480     0.76300
C343        C  0.29800330  0.50262544  0.81330531     0.78700
Cd344      Cd  0.27302566  0.47407044  0.78361517     1.37500
O345        O  0.26444304  0.49161256  0.74706587    -0.56300
O346        O  0.30135921  0.50116796  0.79260503    -0.55100
C347        C  0.23547250  0.44660770  0.79491979     0.78600
O348        O  0.28247519  0.49069862  0.82118782    -0.57500
O349        O  0.24689342  0.50362588  0.77592738    -0.56000
O350        O  0.29744100  0.45813589  0.75462513    -0.56000
O351        O  0.23875486  0.45453479  0.77575769    -0.55100
O352        O  0.29371091  0.63901556  0.76213866    -0.56300
C353        C  0.29573308  0.59855376  0.81177632     0.76300
O354        O  0.24232049  0.65816655  0.80239934    -0.57500
C355        C  0.28789824  0.65914607  0.76157636     0.76300
C356        C  0.23660184  0.60000529  0.76004392     0.78700
Cd357      Cd  0.26479842  0.62699374  0.78881064     1.37500
O358        O  0.30259234  0.61319146  0.79829123    -0.56300
O359        O  0.25650848  0.60510944  0.75606654    -0.55100
C360        C  0.24587084  0.65496685  0.82293230     0.78600
O361        O  0.22831602  0.60818569  0.77752072    -0.57500
O362        O  0.27493945  0.59721789  0.81460125    -0.56000
O363        O  0.27188219  0.66437511  0.77405064    -0.56000
O364        O  0.25722959  0.63803853  0.82778626    -0.55100
O365        O  0.24715881  0.03822342  0.88359318    -0.56300
C366        C  0.26361019  0.07710240  0.82113733     0.76300
O367        O  0.24049418  0.01471737  0.81430608    -0.57500
C368        C  0.23610075  0.02012009  0.88482316     0.76300
C369        C  0.19644285  0.06822986  0.84206958     0.78700
Cd370      Cd  0.23791724  0.04424947  0.84333150     1.37500
O371        O  0.26651566  0.07474543  0.84204800    -0.56300
O372        O  0.21330762  0.07441900  0.85317057    -0.55100
C373        C  0.26147347  0.01303422  0.81642807     0.78600
O374        O  0.19821447  0.04990734  0.83161057    -0.57500
O375        O  0.24858906  0.06543176  0.81197426    -0.56000
O376        O  0.22623308  0.01393088  0.86720254    -0.56000
O377        O  0.27067707  0.02457860  0.83154968    -0.55100
O378        O  0.30801785  0.10352593  0.73866607    -0.56300
C379        C  0.26801208  0.14692671  0.75488678     0.76300
O380        O  0.29033924  0.10642043  0.81469035    -0.57500
C381        C  0.32567173  0.09414423  0.74483766     0.76300
C382        C  0.32935696  0.15262386  0.79667633     0.78700
Cd383      Cd  0.30044730  0.12014897  0.77634634     1.37500
O384        O  0.28850477  0.14899646  0.75055043    -0.56300
O385        O  0.30949805  0.15708077  0.79162424    -0.55100
C386        C  0.27692814  0.09195436  0.80714120     0.78600
O387        O  0.33531569  0.13275589  0.79359668    -0.57500
O388        O  0.26259211  0.13174389  0.76843454    -0.56000
O389        O  0.33122287  0.09680257  0.76494617    -0.56000
O390        O  0.27528426  0.09052701  0.78623894    -0.55100
O391        O  0.40472473  0.05823135  0.71304868    -0.56300
C392        C  0.34469906  0.01625444  0.73464468     0.76300
O393        O  0.33392842  0.07602093  0.70992803    -0.57500
C394        C  0.40448549  0.07532047  0.70055463     0.76300
C395        C  0.36198430  0.02155200  0.66644598     0.78700
Cd396      Cd  0.36456102  0.04863304  0.70599923     1.37500
O397        O  0.36565901  0.01936610  0.73586206    -0.56300
O398        O  0.37447461  0.01748175  0.68292394    -0.55100
C399        C  0.33904733  0.08014216  0.73013958     0.78600
O400        O  0.35088962  0.03944931  0.66744482    -0.57500
O401        O  0.33426637  0.02716367  0.72006006    -0.56000
O402        O  0.38640178  0.07901587  0.69041372    -0.56000
O403        O  0.35625471  0.07096638  0.73784365    -0.55100
O404        O  0.27401754  0.95656762  0.75084833    -0.56300
C405        C  0.27509219  0.99893854  0.80194693     0.76300
O406        O  0.32751853  0.95676366  0.80499419    -0.57500
C407        C  0.28677871  0.94674607  0.73734449     0.76300
C408        C  0.33208639  0.00118820  0.74923347     0.78700
Cd409      Cd  0.30375820  0.97174046  0.77455869     1.37500
O410        O  0.26685476  0.98579588  0.78762547    -0.56300
O411        O  0.31111874  0.00192332  0.74920693    -0.55100
C412        C  0.31712611  0.93842106  0.80642208     0.78600
O413        O  0.34092907  0.98703488  0.76202274    -0.57500
O414        O  0.29604616  0.99971900  0.80312922    -0.56000
O415        O  0.30743688  0.94886377  0.74085267    -0.56000
O416        O  0.30169761  0.93531132  0.79247004    -0.55100
O417        O  0.50413664  0.26910422  0.68954161    -0.56300
C418        C  0.56031448  0.24225242  0.64764885     0.76300
O419        O  0.56759627  0.24861555  0.71710946    -0.57500
C420        C  0.50330430  0.26891651  0.71074110     0.76300
C421        C  0.51615685  0.20015560  0.69011147     0.78700
Cd422      Cd  0.53699489  0.24362540  0.68918605     1.37500
O423        O  0.54483013  0.25620208  0.65056954    -0.56300
O424        O  0.51085897  0.21513548  0.67630367    -0.55100
C425        C  0.56998158  0.26910610  0.71216964     0.78600
O426        O  0.53152435  0.20511543  0.70388163    -0.57500
O427        O  0.56407761  0.22889249  0.66348884    -0.56000
O428        O  0.51689055  0.25656049  0.72079198    -0.56000
O429        O  0.55852509  0.27643874  0.69618195    -0.55100
O430        O  0.51933911  0.41881691  0.80814723    -0.56300
C431        C  0.56281291  0.35864327  0.78821134     0.76300
O432        O  0.53862922  0.36280767  0.85333244    -0.57500
C433        C  0.50251730  0.41813476  0.82100175     0.76300
C434        C  0.49804328  0.35128414  0.79363417     0.78700
Cd435      Cd  0.52974580  0.37872629  0.81586727     1.37500
O436        O  0.56018923  0.37963049  0.78691364    -0.56300
O437        O  0.50783842  0.36739552  0.78412637    -0.55100
C438        C  0.55424583  0.37664234  0.85723256     0.78600
O439        O  0.50156123  0.34865892  0.81437067    -0.57500
O440        O  0.55100928  0.34830261  0.80222008    -0.56000
O441        O  0.49912394  0.39985253  0.83094533    -0.56000
O442        O  0.55774523  0.39131868  0.84249377    -0.55100
O443        O  0.64077299  0.29457463  0.75881003    -0.56300
C444        C  0.58419982  0.28459978  0.72470287     0.76300
O445        O  0.59268758  0.35477271  0.76174668    -0.57500
C446        C  0.63888269  0.29666226  0.77968563     0.76300
C447        C  0.63928053  0.34103051  0.72169917     0.78700
Cd448      Cd  0.60862935  0.31782904  0.74980609     1.37500
O449        O  0.59530587  0.27896014  0.74160284    -0.56300
O450        O  0.64345733  0.33704949  0.74192510    -0.55100
C451        C  0.57841820  0.34594197  0.77446989     0.78600
O452        O  0.61992046  0.33615243  0.71491584    -0.57500
O453        O  0.58494356  0.30492300  0.71946051    -0.56000
O454        O  0.62252157  0.30782581  0.78652191    -0.56000
O455        O  0.57810762  0.32496120  0.77516208    -0.55100
O456        O  0.44052866  0.28936111  0.78680303    -0.56300
C457        C  0.48410804  0.33598671  0.78060745     0.76300
O458        O  0.47154273  0.29257401  0.71571979    -0.57500
C459        C  0.43689736  0.27059629  0.77782407     0.76300
C460        C  0.42249337  0.33261703  0.73704963     0.78700
Cd461      Cd  0.45827669  0.30581519  0.75332779     1.37500
O462        O  0.47429379  0.31943017  0.78918501    -0.56300
O463        O  0.41919653  0.31404714  0.74631478    -0.55100
C464        C  0.48785271  0.28226757  0.72393528     0.78600
O465        O  0.44249763  0.33783678  0.73324871    -0.57500
O466        O  0.48202745  0.33840297  0.75982097    -0.56000
O467        O  0.44336475  0.26834818  0.75790150    -0.56000
O468        O  0.49046249  0.28370284  0.74476043    -0.55100
O469        O  0.88437026  0.23681956  0.98825977    -0.56300
C470        C  0.82387051  0.25474138  0.02667325     0.76300
O471        O  0.81581824  0.23213979  0.96469489    -0.57500
C472        C  0.88565894  0.22599811  0.97009908     0.76300
C473        C  0.84175519  0.18660160  0.02170662     0.78700
Cd474      Cd  0.84452907  0.22674280  0.99493993     1.37500
O475        O  0.84490667  0.25582896  0.02440677    -0.56300
O476        O  0.85433344  0.20304196  0.02614236    -0.55100
C477        C  0.81984665  0.25302166  0.96408630     0.78600
O478        O  0.83090538  0.18773734  0.00350710    -0.57500
O479        O  0.81353986  0.23990893  0.01569597    -0.56000
O480        O  0.86848019  0.21495237  0.96448132    -0.56000
O481        O  0.83545548  0.26027568  0.97626363    -0.55100
O482        O  0.82018811  0.28441184  0.05332222    -0.56300
C483        C  0.80701609  0.33104285  0.09411700     0.76300
O484        O  0.74604984  0.31324715  0.05538319    -0.57500
C485        C  0.81123506  0.27022838  0.04050123     0.76300
C486        C  0.76092736  0.27138031  0.09832913     0.78700
Cd487      Cd  0.78355489  0.29929802  0.06691501     1.37500
O488        O  0.79495651  0.33684289  0.07791389    -0.56300
O489        O  0.76360591  0.26557886  0.07829769    -0.55100
C490        C  0.75387821  0.32615623  0.04068731     0.78600
O491        O  0.76755937  0.29071562  0.10344130    -0.57500
O492        O  0.80967249  0.31033170  0.09666476    -0.56000
O493        O  0.79029647  0.27016537  0.03961603    -0.56000
O494        O  0.77465713  0.32565787  0.03770486    -0.55100
O495        O  0.67785174  0.36090139  0.98971808    -0.56300
C496        C  0.74017821  0.34137310  0.02754857     0.76300
O497        O  0.74729440  0.36848208  0.96944667    -0.57500
C498        C  0.67709286  0.37225383  0.97185347     0.76300
C499        C  0.71818775  0.41008827  0.02602269     0.78700
Cd500      Cd  0.71747607  0.37061140  0.99800937     1.37500
O501        O  0.71900525  0.34042326  0.02677373    -0.56300
O502        O  0.70701687  0.39265335  0.03026990    -0.55100
C503        C  0.74337501  0.34790011  0.96578711     0.78600
O504        O  0.72892283  0.41000896  0.00775257    -0.57500
O505        O  0.74969129  0.35623116  0.01601993    -0.56000
O506        O  0.69445375  0.38336162  0.96709268    -0.56000
O507        O  0.72675073  0.33920268  0.97544410    -0.55100
O508        O  0.82433369  0.31204215  0.91993056    -0.56300
C509        C  0.75768241  0.33387775  0.95197908     0.76300
O510        O  0.75653831  0.27923349  0.90921753    -0.57500
C511        C  0.82174427  0.32105701  0.90109611     0.76300
C512        C  0.80719578  0.26909191  0.95077977     0.78700
Cd513      Cd  0.78495017  0.30383080  0.92589307     1.37500
O514        O  0.77504700  0.34099992  0.94251498    -0.56300
O515        O  0.81047548  0.28968389  0.95369138    -0.55100
C516        C  0.75792723  0.28782131  0.89001014     0.78600
O517        O  0.79275432  0.26370724  0.93634801    -0.57500
O518        O  0.75344767  0.31342906  0.94971051    -0.56000
O519        O  0.80193705  0.32414940  0.89486920    -0.56000
O520        O  0.77251937  0.30280000  0.88747362    -0.55100
O521        O  0.03290449  0.33804160  0.65174045    -0.56300
C522        C  0.07203721  0.32292184  0.71412540     0.76300
O523        O  0.04427967  0.38886427  0.70474951    -0.57500
C524        C  0.01627941  0.35082586  0.64987895     0.76300
C525        C  0.00786337  0.32415193  0.71624774     0.78700
Cd526      Cd  0.03990072  0.34912952  0.69172184     1.37500
O527        O  0.07063639  0.32148693  0.69298289    -0.56300
O528        O  0.01838249  0.31631896  0.69985307    -0.55100
C529        C  0.06288095  0.39188606  0.69512780     0.78600
O530        O  0.01079668  0.34468277  0.72072793    -0.57500
O531        O  0.05965988  0.33683141  0.72372764    -0.56000
O532        O  0.01152873  0.36239562  0.66683377    -0.56000
O533        O  0.06992500  0.37568365  0.68367180    -0.55100
O534        O  0.01173320  0.21555186  0.79318888    -0.56300
C535        C  0.06913495  0.17652388  0.82814715     0.76300
O536        O  0.07061424  0.24426658  0.82023949    -0.57500
C537        C  0.00981681  0.23663196  0.79464641     0.76300
C538        C  0.01409308  0.21799486  0.86214551     0.78700
Cd539      Cd  0.04143987  0.21526736  0.82265815     1.37500
O540        O  0.05362698  0.17638254  0.81365952    -0.56300
O541        O  0.01206159  0.20244563  0.84793933    -0.55100
C542        C  0.07449523  0.24015465  0.79977995     0.78600
O543        O  0.02984824  0.23185739  0.85892760    -0.57500
O544        O  0.07064981  0.19377220  0.84027536    -0.56000
O545        O  0.02164545  0.24652768  0.80905197    -0.56000
O546        O  0.06419413  0.22394939  0.79093637    -0.55100
O547        O  0.14691803  0.30733545  0.76446102    -0.56300
C548        C  0.08914766  0.25414159  0.78618684     0.76300
O549        O  0.09910352  0.29420744  0.71992218    -0.57500
C550        C  0.13780995  0.31916164  0.77922078     0.76300
C551        C  0.15101254  0.25841738  0.74235745     0.78700
Cd552      Cd  0.11434847  0.28386176  0.75777737     1.37500
O553        O  0.09897807  0.27102419  0.79399208    -0.56300
O554        O  0.15107444  0.26901344  0.76055066    -0.55100
C555        C  0.08678857  0.30923095  0.72772883     0.78600
O556        O  0.13368990  0.25990561  0.73041127    -0.57500
O557        O  0.09160993  0.25050063  0.76561671    -0.56000
O558        O  0.11789232  0.31449602  0.78413224    -0.56000
O559        O  0.08732696  0.31194752  0.74852446    -0.55100
O560        O  0.95052346  0.30838961  0.77830969    -0.56300
C561        C  0.99364253  0.30943783  0.72956240     0.76300
O562        O  0.98206175  0.24166765  0.76605453    -0.57500
C563        C  0.93948399  0.29495294  0.79030835     0.76300
C564        C  0.93189335  0.26603995  0.72443397     0.78700
Cd565      Cd  0.96656831  0.27901210  0.75510378     1.37500
O566        O  0.98286940  0.31620231  0.74624823    -0.56300
O567        O  0.93004710  0.28150824  0.73850293    -0.55100
C568        C  0.99505299  0.24991800  0.78053214     0.78600
O569        O  0.95019148  0.25579444  0.72446625    -0.57500
O570        O  0.99209010  0.28894073  0.72504531    -0.56000
O571        O  0.94148851  0.27445452  0.78605638    -0.56000
O572        O  0.99504019  0.27083461  0.78247131    -0.55100
O573        O  0.84693979  0.40309364  0.49674510    -0.56300
C574        C  0.82925326  0.34532157  0.53771861     0.76300
O575        O  0.85542451  0.33459198  0.47576036    -0.57500
C576        C  0.86020799  0.40535821  0.48045809     0.76300
C577        C  0.89788456  0.36215821  0.53178881     0.78700
Cd578      Cd  0.85797150  0.36435981  0.50517200     1.37500
O579        O  0.82797373  0.36610106  0.53393644    -0.56300
O580        O  0.88153440  0.37438863  0.53652729    -0.55100
C581        C  0.83476961  0.33799381  0.47281473     0.78600
O582        O  0.89653471  0.35132240  0.51360814    -0.57500
O583        O  0.84418229  0.33469433  0.52755692    -0.56000
O584        O  0.87309012  0.38927856  0.47656241    -0.56000
O585        O  0.82615169  0.35356421  0.48385926    -0.55100
O586        O  0.73410579  0.19941317  0.49719251    -0.56300
C587        C  0.74756994  0.26155700  0.53825092     0.76300
O588        O  0.72390370  0.26562985  0.47603282    -0.57500
C589        C  0.72021372  0.19675601  0.48137875     0.76300
C590        C  0.68077250  0.23805877  0.53184881     0.78700
Cd591      Cd  0.72130151  0.23777674  0.50649344     1.37500
O592        O  0.74980002  0.24054724  0.53665537    -0.56300
O593        O  0.69741837  0.22621984  0.53669764    -0.55100
C594        C  0.74468919  0.26232644  0.47385697     0.78600
O595        O  0.68225867  0.24950646  0.51407647    -0.57500
O596        O  0.73275337  0.27047994  0.52635862    -0.56000
O597        O  0.70652975  0.21235923  0.47834291    -0.56000
O598        O  0.75338612  0.24751227  0.48586466    -0.55100
O599        O  0.82732457  0.30821813  0.44682491    -0.56300
C600        C  0.80923269  0.26982567  0.39916947     0.76300
O601        O  0.75146250  0.28850457  0.44448971    -0.57500
C602        C  0.82055945  0.32467827  0.45792626     0.76300
C603        C  0.76700292  0.32930201  0.40098000     0.78700
Cd604      Cd  0.78930211  0.29941329  0.43072751     1.37500
O605        O  0.79924269  0.26257020  0.41627237    -0.56300
O606        O  0.77325862  0.31035777  0.39456080    -0.55100
C607        C  0.75890646  0.27505106  0.45873815     0.78600
O608        O  0.76949907  0.33357162  0.42146709    -0.57500
O609        O  0.81165730  0.29070680  0.39777741    -0.56000
O610        O  0.80022813  0.32916958  0.45609702    -0.56000
O611        O  0.77974169  0.27299129  0.45967453    -0.55100
O612        O  0.79507542  0.28264437  0.61421300    -0.56300
C613        C  0.76144329  0.27563866  0.55268978     0.76300
O614        O  0.74974767  0.31490652  0.59288020    -0.57500
C615        C  0.81581050  0.28238790  0.61084420     0.76300
C616        C  0.81417274  0.33312358  0.55254638     0.78700
Cd617      Cd  0.78677122  0.30538960  0.58076292     1.37500
O618        O  0.77606137  0.26798854  0.56565911    -0.56300
O619        O  0.81535521  0.31223525  0.55356275    -0.55100
C620        C  0.75544545  0.32750441  0.60877755     0.78600
O621        O  0.79950502  0.34221315  0.56449744    -0.57500
O622        O  0.75926270  0.29650588  0.55242805    -0.56000
O623        O  0.82259086  0.29238308  0.59365500    -0.56000
O624        O  0.77609618  0.33108023  0.61112699    -0.55100
C625        C  0.89947746  0.24533154  0.67402026    -0.26700
C626        C  0.87949829  0.25696572  0.67659619     0.06900
C627        C  0.87622514  0.26958587  0.69599406     0.26500
C628        C  0.89309422  0.27161906  0.71176569    -0.11200
C629        C  0.91355967  0.26102330  0.70871917    -0.25200
C630        C  0.91637333  0.24718184  0.69003037     0.37300
C631        C  0.86323457  0.25847957  0.65814309     0.06900
F632        F  0.85728168  0.28126891  0.69901752    -0.18900
H633        H  0.89033344  0.28219206  0.72608531     0.16700
F634        F  0.93568651  0.23622757  0.68671734    -0.22700
H635        H  0.90223326  0.23536138  0.65926875     0.18500
C636        C  0.87012315  0.26618480  0.63716512     0.26500
C637        C  0.85444673  0.27279163  0.62146359    -0.11200
C638        C  0.83163183  0.27184058  0.62631368    -0.25200
C639        C  0.82466673  0.26238134  0.64658125     0.37400
C640        C  0.84040834  0.25573732  0.66231989    -0.26800
F641        F  0.89199692  0.26912229  0.63247062    -0.19000
H642        H  0.86028438  0.27971456  0.60589710     0.16700
F643        F  0.80278070  0.26061924  0.65172842    -0.22700
H644        H  0.83478031  0.24951910  0.67828013     0.18500
C645        C  0.98516433  0.33731751  0.59589362    -0.26700
C646        C  0.97193472  0.35638319  0.59370093     0.06900
C647        C  0.97517232  0.37401414  0.60878985     0.26500
C648        C  0.99015582  0.37208519  0.62635927    -0.11200
C649        C  0.00263834  0.35272961  0.62933285    -0.25200
C650        C  0.00047141  0.33545761  0.61354550     0.37300
C651        C  0.95333190  0.35731812  0.57731001     0.06900
F652        F  0.96346975  0.39308565  0.60681706    -0.18900
H653        H  0.99170549  0.38581220  0.63801119     0.16700
F654        F  0.01209878  0.31637797  0.61583747    -0.22700
H655        H  0.98290592  0.32342482  0.58454175     0.18500
C656        C  0.95618225  0.35234391  0.55456645     0.26500
C657        C  0.93811208  0.35361537  0.53973786    -0.11200
C658        C  0.91711530  0.36045137  0.54723079    -0.25200
C659        C  0.91446160  0.36560451  0.56994806     0.37400
C660        C  0.93222085  0.36368361  0.58472662    -0.26800
F661        F  0.97652082  0.34705179  0.54656251    -0.19000
H662        H  0.94065023  0.34975213  0.52231232     0.16700
F663        F  0.89455464  0.37218108  0.57809584    -0.22700
H664        H  0.92942011  0.36724157  0.60219698     0.18500
C665        C  0.87993444  0.32100350  0.87837003    -0.26700
C666        C  0.87565959  0.32243009  0.85548392     0.06900
C667        C  0.85407438  0.32693322  0.84801745     0.26500
C668        C  0.83674230  0.32865517  0.86332178    -0.11200
C669        C  0.84069307  0.32552257  0.88618987    -0.25200
C670        C  0.86263242  0.32263063  0.89367966     0.37300
C671        C  0.89309980  0.31628229  0.83958326     0.06900
F672        F  0.84940882  0.32765635  0.82590232    -0.18900
H673        H  0.82003589  0.33069647  0.85711047     0.16700
F674        F  0.86723120  0.31998154  0.91564163    -0.22700
H675        H  0.89651676  0.31756790  0.88428066     0.18500
C676        C  0.90077856  0.33128789  0.82341958     0.26500
C677        C  0.91654129  0.32452546  0.80780886    -0.11200
C678        C  0.92451468  0.30264132  0.80799928    -0.25200
C679        C  0.91710930  0.28783546  0.82456571     0.37400
C680        C  0.90158877  0.29468800  0.84024146    -0.26800
F681        F  0.89299895  0.35237464  0.82275666    -0.19000
H682        H  0.92203751  0.33619902  0.79520719     0.16700
F683        F  0.92477271  0.26670693  0.82560417    -0.22700
H684        H  0.89578483  0.28297281  0.85264062     0.18500
C685        C  0.94347205  0.23882026  0.94658171    -0.26700
C686        C  0.94364468  0.22526170  0.92744871     0.06900
C687        C  0.92450807  0.21259398  0.92241361     0.26500
C688        C  0.90597373  0.21307918  0.93634943    -0.11200
C689        C  0.90585993  0.22615170  0.95576106    -0.25200
C690        C  0.92478267  0.23931475  0.96062328     0.37300
C691        C  0.96363711  0.22384854  0.91279900     0.06900
F692        F  0.92353879  0.19987431  0.90374277    -0.18900
H693        H  0.89162831  0.20306907  0.93186500     0.16700
F694        F  0.92529781  0.25265316  0.97886488    -0.22700
H695        H  0.95792954  0.24871990  0.95087385     0.18500
C696        C  0.97450134  0.24298273  0.90454263     0.26500
C697        C  0.99170072  0.24104201  0.88882561    -0.11200
C698        C  0.99823552  0.22002013  0.88099174    -0.25200
C699        C  0.98805316  0.20096662  0.89004453     0.37400
C700        C  0.97116745  0.20288567  0.90588354    -0.26800
F701        F  0.96775293  0.26355595  0.91071454    -0.19000
H702        H  0.99915553  0.25591285  0.88205817     0.16700
F703        F  0.99430634  0.18036801  0.88346185    -0.22700
H704        H  0.96362636  0.18794854  0.91239604     0.18500
C705        C  0.66863696  0.35851037  0.66906654    -0.26700
C706        C  0.69046275  0.35218352  0.67416397     0.06900
C707        C  0.69572360  0.34605662  0.69610321     0.26500
C708        C  0.67907648  0.34475944  0.71215688    -0.11200
C709        C  0.65684229  0.34876452  0.70644282    -0.25200
C710        C  0.65181931  0.35646016  0.68494046     0.37300
C711        C  0.70664685  0.34856810  0.65606183     0.06900
F712        F  0.71640748  0.33904334  0.70149632    -0.18900
H713        H  0.68334405  0.33862744  0.72853027     0.16700
F714        F  0.63055710  0.36064418  0.67882518    -0.22700
H715        H  0.66434739  0.36358288  0.65231868     0.18500
C716        C  0.70065391  0.33522668  0.63774500     0.26500
C717        C  0.71646665  0.32943084  0.62194441    -0.11200
C718        C  0.73866977  0.33646574  0.62420301    -0.25200
C719        C  0.74459205  0.35031999  0.64220445     0.37400
C720        C  0.72863040  0.35637294  0.65794276    -0.26800
F721        F  0.67984284  0.32651208  0.63587828    -0.19000
H722        H  0.71144989  0.31857293  0.60841828     0.16700
F723        F  0.76586806  0.35741299  0.64504153    -0.22700
H724        H  0.73355464  0.36666336  0.67193951     0.18500
C725        C  0.69105847  0.27044391  0.80274787    -0.26700
C726        C  0.68949233  0.27650826  0.82522563     0.06900
C727        C  0.67041116  0.28726572  0.83290274     0.26500
C728        C  0.65343855  0.29254642  0.81812027    -0.11200
C729        C  0.65536724  0.28757232  0.79535581    -0.25200
C730        C  0.67411624  0.27588636  0.78783128     0.37300
C731        C  0.70901553  0.27527137  0.83985827     0.06900
F732        F  0.66907007  0.29442594  0.85430630    -0.18900
H733        H  0.63933501  0.30166075  0.82434301     0.16700
F734        F  0.67667809  0.27073468  0.76598019    -0.22700
H735        H  0.70588101  0.26241361  0.79660157     0.18500
C736        C  0.70805364  0.26384057  0.86018516     0.26500
C737        C  0.72483535  0.26691642  0.87598986    -0.11200
C738        C  0.74258673  0.28164844  0.87181658    -0.25200
C739        C  0.74407812  0.29210523  0.85086710     0.37400
C740        C  0.72745960  0.28874186  0.83502140    -0.26800
F741        F  0.69037082  0.25060457  0.86513423    -0.19000
H742        H  0.72332123  0.25864755  0.89193458     0.16700
F743        F  0.76079002  0.30663401  0.84609588    -0.22700
H744        H  0.72822695  0.29788380  0.81948548     0.18500
C745        C  0.59407666  0.39417452  0.90294198    -0.26700
C746        C  0.60134417  0.37360588  0.91119714     0.06900
C747        C  0.59085431  0.35403810  0.90332511     0.26500
C748        C  0.57431711  0.35512192  0.88680172    -0.11200
C749        C  0.56839958  0.37565413  0.87745230    -0.25200
C750        C  0.57809213  0.39519592  0.88606590     0.37300
C751        C  0.62066257  0.37292782  0.92689554     0.06900
F752        F  0.59760432  0.33377732  0.91040140    -0.18900
H753        H  0.56721794  0.33990467  0.88036792     0.16700
F754        F  0.57247515  0.41537190  0.87779957    -0.22700
H755        H  0.60124889  0.40946813  0.90908580     0.18500
C756        C  0.63972293  0.38608425  0.92288388     0.26500
C757        C  0.65756214  0.38609218  0.93783244    -0.11200
C758        C  0.65732899  0.37245681  0.95683848    -0.25200
C759        C  0.63869180  0.35856844  0.96041496     0.37400
C760        C  0.62044032  0.35911125  0.94579975    -0.26800
F761        F  0.64153025  0.39837791  0.90401667    -0.19000
H762        H  0.67182622  0.39653266  0.93421515     0.16700
F763        F  0.63825448  0.34406804  0.97769279    -0.22700
H764        H  0.60614320  0.34870866  0.94929146     0.18500
C765        C  0.59458308  0.26027916  0.59764819    -0.26700
C766        C  0.60524502  0.24031913  0.59208094     0.06900
C767        C  0.59921169  0.22078216  0.60358266     0.26500
C768        C  0.58390732  0.22150155  0.62099001    -0.11200
C769        C  0.57397554  0.24156983  0.62719985    -0.25200
C770        C  0.57902658  0.26093816  0.61502893     0.37300
C771        C  0.62415707  0.24011302  0.57608643     0.06900
F772        F  0.60854605  0.20099785  0.59835513    -0.18900
H773        H  0.58016381  0.20632294  0.63000637     0.16700
F774        F  0.57018030  0.28075006  0.62094048    -0.22700
H775        H  0.59914475  0.27563416  0.58931029     0.18500
C776        C  0.62312334  0.25040904  0.55504087     0.26500
C777        C  0.64141936  0.24961813  0.54050497    -0.11200
C778        C  0.66103023  0.23863766  0.54673887    -0.25200
C779        C  0.66198786  0.22868910  0.56794129     0.37400
C780        C  0.64388639  0.22957094  0.58232403    -0.26800
F781        F  0.60438578  0.26089007  0.54839949    -0.19000
H782        H  0.64023289  0.25756300  0.52438115     0.16700
F783        F  0.68063127  0.21842882  0.57516158    -0.22700
H784        H  0.64545593  0.22214774  0.59868030     0.18500
C785        C  0.48013510  0.15123749  0.67194057    -0.26700
C786        C  0.47676955  0.13987089  0.69212897     0.06900
C787        C  0.48865874  0.14706508  0.71108309     0.26500
C788        C  0.50250627  0.16597058  0.71005433    -0.11200
C789        C  0.50438648  0.17831390  0.69027294    -0.25200
C790        C  0.49343791  0.17041532  0.67104847     0.37300
C791        C  0.45893251  0.12248370  0.69372573     0.06900
F792        F  0.48561812  0.13689727  0.73100984    -0.18900
H793        H  0.51068982  0.17169230  0.72505230     0.16700
F794        F  0.49505152  0.18155567  0.65146024    -0.22700
H795        H  0.47162738  0.14581469  0.65699802     0.18500
C796        C  0.43768317  0.12683058  0.68508112     0.26500
C797        C  0.42052101  0.11121624  0.68710699    -0.11200
C798        C  0.42377788  0.09086366  0.69804203    -0.25200
C799        C  0.44502390  0.08637920  0.70679344     0.37400
C800        C  0.46242538  0.10203759  0.70454404    -0.26800
F801        F  0.43315168  0.14667862  0.67544267    -0.19000
H802        H  0.40433645  0.11540705  0.68044919     0.16700
F803        F  0.44899608  0.06699126  0.71754332    -0.22700
H804        H  0.47863176  0.09820537  0.71130736     0.18500
C805        C  0.24197946  0.19815433  0.73030014    -0.26700
C806        C  0.21945473  0.19407023  0.73460660     0.06900
C807        C  0.21275761  0.17347797  0.74341392     0.26500
C808        C  0.22861543  0.15760429  0.74884337    -0.11200
C809        C  0.25133361  0.16211768  0.74563378    -0.25200
C810        C  0.25785917  0.18232891  0.73572766     0.37300
C811        C  0.20353038  0.21238745  0.73321454     0.06900
F812        F  0.19111009  0.16944024  0.74842563    -0.18900
H813        H  0.22319330  0.14223828  0.75650409     0.16700
F814        F  0.27963170  0.18750945  0.73271800    -0.22700
H815        H  0.24733615  0.21407921  0.72373046     0.18500
C816        C  0.20642204  0.23098351  0.74706021     0.26500
C817        C  0.18982879  0.24683017  0.74854856    -0.11200
C818        C  0.16996509  0.24428161  0.73647984    -0.25200
C819        C  0.16769226  0.22643487  0.72144693     0.37400
C820        C  0.18438342  0.21047569  0.71998796    -0.26800
F821        F  0.22448487  0.23287945  0.76052764    -0.19000
H822        H  0.19203151  0.26046474  0.76013947     0.16700
F823        F  0.14879037  0.22350528  0.70942181    -0.22700
H824        H  0.18201449  0.19618224  0.70924744     0.18500
C825        C  0.35710538  0.20860829  0.80482206    -0.26700
C826        C  0.37887388  0.20223604  0.80992391     0.06900
C827        C  0.38326140  0.17976921  0.81431169     0.26500
C828        C  0.36653297  0.16373624  0.81154651    -0.11200
C829        C  0.34522601  0.16988779  0.80436520    -0.25200
C830        C  0.34039675  0.19261056  0.80190509     0.37300
C831        C  0.39714395  0.21825380  0.80574846     0.06900
F832        F  0.40407924  0.17318680  0.81972926    -0.18900
H833        H  0.37061350  0.14641875  0.81377304     0.16700
F834        F  0.32017218  0.19931810  0.79466883    -0.22700
H835        H  0.35348317  0.22578895  0.80115213     0.18500
C836        C  0.41220181  0.21390624  0.78847911     0.26500
C837        C  0.42595485  0.23079090  0.78037486    -0.11200
C838        C  0.42509628  0.25230658  0.78939077    -0.25200
C839        C  0.41131956  0.25624062  0.80789688     0.37400
C840        C  0.39723522  0.23934161  0.81582299    -0.26800
F841        F  0.41216379  0.19389411  0.77799538    -0.19000
H842        H  0.43651876  0.22726532  0.76631743     0.16700
F843        F  0.41024479  0.27673263  0.81729354    -0.22700
H844        H  0.38566221  0.24298303  0.82902317     0.18500
C845        C  0.15818030  0.11780211  0.84776568    -0.26700
C846        C  0.13810861  0.10992642  0.83858564     0.06900
C847        C  0.13718651  0.08770650  0.83096659     0.26500
C848        C  0.15607971  0.07412526  0.83208223    -0.11200
C849        C  0.17611203  0.08219298  0.84126380    -0.25200
C850        C  0.17675620  0.10417355  0.84941399     0.37300
C851        C  0.11879925  0.12539975  0.83652790     0.06900
F852        F  0.11796627  0.07895044  0.82283484    -0.18900
H853        H  0.15497895  0.05721968  0.82589401     0.16700
F854        F  0.19556221  0.11287833  0.85853535    -0.22700
H855        H  0.15976663  0.13489570  0.85330979     0.18500
C856        C  0.11375645  0.14046900  0.85377087     0.26500
C857        C  0.09741650  0.15658460  0.85086754    -0.11200
C858        C  0.08516380  0.15795867  0.83099388    -0.25200
C859        C  0.08954877  0.14244737  0.81397216     0.37400
C860        C  0.10626180  0.12647241  0.81672259    -0.26800
F861        F  0.12458236  0.13967616  0.87359215    -0.19000
H862        H  0.09437850  0.16815977  0.86435267     0.16700
F863        F  0.07848961  0.14332927  0.79429531    -0.22700
H864        H  0.10994731  0.11544712  0.80294499     0.18500
C865        C  0.18397019  0.41190211  0.78510483    -0.26700
C866        C  0.18424194  0.39801827  0.80375927     0.06900
C867        C  0.19916740  0.40239645  0.82119744     0.26500
C868        C  0.21504240  0.41938047  0.81900989    -0.11200
C869        C  0.21619506  0.43193535  0.79930861    -0.25200
C870        C  0.19977167  0.42875938  0.78282138     0.37300
C871        C  0.17188334  0.37692999  0.80257163     0.06900
F872        F  0.19906275  0.38950898  0.83972630    -0.18900
H873        H  0.22720139  0.42181048  0.83211753     0.16700
F874        F  0.19968570  0.44102687  0.76386250    -0.22700
H875        H  0.17249558  0.40865766  0.77154528     0.18500
C876        C  0.14865352  0.37667833  0.80104357     0.26500
C877        C  0.13750040  0.35718975  0.79490507    -0.11200
C878        C  0.14948818  0.33806440  0.78942557    -0.25200
C879        C  0.17269100  0.33804995  0.79189818     0.37400
C880        C  0.18376239  0.35736212  0.79869092    -0.26800
F881        F  0.13692899  0.39556219  0.80423495    -0.19000
H882        H  0.11963875  0.35747717  0.79298580     0.16700
F883        F  0.18468803  0.31966646  0.78705003    -0.22700
H884        H  0.20172179  0.35748535  0.79947181     0.18500
C885        C  0.34678733  0.41266035  0.73069685    -0.26700
C886        C  0.35260306  0.39498021  0.74465872     0.06900
C887        C  0.34299887  0.39337634  0.76591059     0.26500
C888        C  0.32748495  0.40894970  0.77284081    -0.11200
C889        C  0.32131806  0.42652222  0.75883004    -0.25200
C890        C  0.33120556  0.42831850  0.73763570     0.37300
C891        C  0.36945892  0.37876806  0.73765895     0.06900
F892        F  0.34912598  0.37711723  0.78026624    -0.18900
H893        H  0.32038179  0.40728079  0.78930652     0.16700
F894        F  0.32605170  0.44523790  0.72369272    -0.22700
H895        H  0.35428124  0.41426947  0.71439556     0.18500
C896        C  0.36494729  0.35586153  0.73883640     0.26500
C897        C  0.38212420  0.34065259  0.73657008    -0.11200
C898        C  0.40402095  0.34804452  0.73298212    -0.25200
C899        C  0.40808121  0.37087947  0.72946361     0.37400
C900        C  0.39085953  0.38610093  0.73189541    -0.26800
F901        F  0.34411903  0.34827521  0.74327294    -0.19000
H902        H  0.37848282  0.32315886  0.73895762     0.16700
F903        F  0.42891993  0.37871459  0.72553146    -0.22700
H904        H  0.39455274  0.40375522  0.73069928     0.18500
C905        C  0.08101979  0.45214498  0.70697880    -0.26700
C906        C  0.10352801  0.45173744  0.70057725     0.06900
C907        C  0.11235416  0.43143470  0.69318193     0.26500
C908        C  0.09891094  0.41243294  0.69137169    -0.11200
C909        C  0.07634306  0.41279989  0.69729204    -0.25200
C910        C  0.06752265  0.43290498  0.70538186     0.37300
C911        C  0.11803213  0.47211025  0.70189492     0.06900
F912        F  0.13426653  0.42969968  0.68828897    -0.18900
H913        H  0.10639092  0.39718554  0.68559320     0.16700
F914        F  0.04584271  0.43412932  0.71135599    -0.22700
H915        H  0.07380576  0.46744941  0.71292488     0.18500
C916        C  0.13216519  0.47797228  0.68410496     0.26500
C917        C  0.14792962  0.49509248  0.68649752    -0.11200
C918        C  0.14986386  0.50707623  0.70653612    -0.25200
C919        C  0.13472000  0.50233613  0.72378434     0.37400
C920        C  0.11899174  0.48502570  0.72145300    -0.26800
F921        F  0.13103444  0.46686727  0.66443529    -0.19000
H922        H  0.15904445  0.49858996  0.67279218     0.16700
F923        F  0.13600732  0.51345021  0.74342846    -0.22700
H924        H  0.10829887  0.48102474  0.73534670     0.18500
C925        C  0.42805128  0.49893081  0.81570395    -0.26700
C926        C  0.43807128  0.48899507  0.83435542     0.06900
C927        C  0.43006346  0.49459663  0.85568750     0.26500
C928        C  0.41177798  0.50865738  0.85811184    -0.11200
C929        C  0.40122431  0.51786579  0.83945426    -0.25200
C930        C  0.40980887  0.51317638  0.81816797     0.37300
C931        C  0.45545957  0.47153029  0.83141531     0.06900
F932        F  0.43973967  0.48625153  0.87427158    -0.18900
H933        H  0.40561925  0.51212427  0.87469723     0.16700
F934        F  0.39960796  0.52105363  0.79966319    -0.22700
H935        H  0.43368595  0.49481271  0.79908902     0.18500
C936        C  0.45325325  0.45087711  0.84220333     0.26500
C937        C  0.46880585  0.43411526  0.83883976    -0.11200
C938        C  0.48705325  0.43715555  0.82452359    -0.25200
C939        C  0.48950854  0.45787653  0.81377370     0.37400
C940        C  0.47377648  0.47480111  0.81713073    -0.26800
F941        F  0.43546800  0.44640982  0.85536126    -0.19000
H942        H  0.46623425  0.41842673  0.84731335     0.16700
F943        F  0.50690924  0.46177393  0.79994055    -0.22700
H944        H  0.47590549  0.49050257  0.80857445     0.18500
C945        C  0.33353940  0.85472317  0.87704075    -0.26700
C946        C  0.32714949  0.87702317  0.87908140     0.06900
C947        C  0.31801880  0.88446477  0.89921679     0.26500
C948        C  0.31446061  0.86963309  0.91665553    -0.11200
C949        C  0.31956377  0.84703141  0.91421549    -0.25200
C950        C  0.32989494  0.83978716  0.89451344     0.37300
C951        C  0.32735988  0.89179589  0.85947333     0.06900
F952        F  0.31076346  0.90564728  0.90139521    -0.18900
H953        H  0.30647533  0.87563175  0.93154882     0.16700
F954        F  0.33530438  0.81812090  0.89157787    -0.22700
H955        H  0.34054023  0.84874419  0.86162453     0.18500
C956        C  0.33720964  0.91303961  0.86041239     0.26500
C957        C  0.33466950  0.92785846  0.84266439    -0.11200
C958        C  0.32199515  0.92180760  0.82388298    -0.25200
C959        C  0.31262377  0.90027770  0.82282216     0.37400
C960        C  0.31551708  0.88539796  0.84036847    -0.26800
F961        F  0.34880645  0.91960350  0.87871966    -0.19000
H962        H  0.34190347  0.94432458  0.84398786     0.16700
F963        F  0.30006562  0.89374673  0.80515791    -0.22700
H964        H  0.30758501  0.86921028  0.83949525     0.18500
C965        C  0.24876979  0.74376476  0.87738819    -0.26700
C966        C  0.23648382  0.72560031  0.88562183     0.06900
C967        C  0.23028673  0.72548934  0.90820177     0.26500
C968        C  0.23781366  0.74238054  0.92249403    -0.11200
C969        C  0.25154491  0.75962935  0.91448460    -0.25200
C970        C  0.25605039  0.76071486  0.89152700     0.37300
C971        C  0.23300520  0.70593881  0.87100314     0.06900
F972        F  0.21758325  0.70873699  0.91657038    -0.18900
H973        H  0.23377763  0.74135272  0.94004354     0.16700
F974        F  0.26857198  0.77745028  0.88282760    -0.22700
H975        H  0.25394120  0.74423295  0.86011978     0.18500
C976        C  0.22663329  0.70868754  0.84865401     0.26500
C977        C  0.22951930  0.69146719  0.83333885    -0.11200
C978        C  0.23842079  0.67103310  0.84005993    -0.25200
C979        C  0.24233080  0.66743013  0.86290795     0.37400
C980        C  0.23982176  0.68483649  0.87818077    -0.26800
F981        F  0.21876149  0.72846839  0.84138892    -0.19000
H982        H  0.22587349  0.69458901  0.81595997     0.16700
F983        F  0.24973377  0.64753718  0.87036625    -0.22700
H984        H  0.24473009  0.68221890  0.89530859     0.18500
C985        C  0.24974598  0.96034628  0.97613122    -0.26700
C986        C  0.23012832  0.96599163  0.96483570     0.06900
C987        C  0.21017679  0.95521733  0.97087791     0.26500
C988        C  0.21019841  0.93818926  0.98677737    -0.11200
C989        C  0.23001991  0.93168881  0.99726654    -0.25200
C990        C  0.24974613  0.94337349  0.99217560     0.37300
C991        C  0.23106762  0.98076234  0.94492673     0.06900
F992        F  0.19071852  0.96073939  0.96093868    -0.18900
H993        H  0.19475813  0.92970069  0.99049696     0.16700
F994        F  0.26934814  0.93734479  0.00141747    -0.22700
H995        H  0.26531189  0.96814390  0.97160151     0.18500
C996        C  0.24182901  0.00166374  0.94531274     0.26500
C997        C  0.24341867  0.01450668  0.92581865    -0.11200
C998        C  0.23454414  0.00663897  0.90555725    -0.25200
C999        C  0.22406034  0.98557285  0.90524975     0.37400
C1000       C  0.22225542  0.97298315  0.92469078    -0.26800
F1001       F  0.25063877  0.00974917  0.96452880    -0.19000
H1002       H  0.25161096  0.03055796  0.92657686     0.16700
F1003       F  0.21593841  0.97673288  0.88605029    -0.22700
H1004       H  0.21447517  0.95673195  0.92377183     0.18500
C1005       C  0.33330841  0.64182725  0.97881075    -0.26700
C1006       C  0.34929354  0.64005741  0.96183176     0.06900
C1007       C  0.36764317  0.65473639  0.96213380     0.26500
C1008       C  0.36936564  0.67136989  0.97829746    -0.11200
C1009       C  0.35300256  0.67377456  0.99475719    -0.25200
C1010       C  0.33514810  0.65846155  0.99519577     0.37300
C1011       C  0.34633279  0.62397593  0.94307194     0.06900
F1012       F  0.38393384  0.65316557  0.94662503    -0.18900
H1013       H  0.38339521  0.68269123  0.97762226     0.16700
F1014       F  0.31893542  0.66014027  0.01076204    -0.22700
H1015       H  0.31896669  0.63091077  0.97890869     0.18500
C1016       C  0.34071128  0.60145505  0.94662193     0.26500
C1017       C  0.33878714  0.58667180  0.92851803    -0.11200
C1018       C  0.34270288  0.59402371  0.90663043    -0.25200
C1019       C  0.34791812  0.61664039  0.90317330     0.37400
C1020       C  0.34946101  0.63135187  0.92111408    -0.26800
F1021       F  0.33778949  0.59357427  0.96758413    -0.19000
H1022       H  0.33471915  0.56940978  0.93165031     0.16700
F1023       F  0.35119784  0.62476667  0.88234518    -0.22700
H1024       H  0.35311721  0.64866294  0.91778167     0.18500
C1025       C  0.22563106  0.76458105  0.19449198    -0.26700
C1026       C  0.20433144  0.76056801  0.18578657     0.06900
C1027       C  0.20178217  0.75679093  0.16284546     0.26500
C1028       C  0.21987383  0.75945375  0.14859073    -0.11200
C1029       C  0.24070124  0.76598128  0.15702883    -0.25200
C1030       C  0.24376351  0.76719532  0.18026640     0.37300
C1031       C  0.18478107  0.76479162  0.19987403     0.06900
F1032       F  0.18145612  0.75216122  0.15409987    -0.18900
H1033       H  0.21715677  0.75801159  0.13079764     0.16700
F1034       F  0.26382278  0.77261741  0.18920651    -0.22700
H1035       H  0.22793809  0.76755711  0.21213039     0.18500
C1036       C  0.18272916  0.75540622  0.22116844     0.26500
C1037       C  0.16643661  0.76304553  0.23575638    -0.11200
C1038       C  0.15206448  0.78016638  0.22931124    -0.25200
C1039       C  0.15321194  0.78843856  0.20743541     0.37400
C1040       C  0.16952929  0.78088231  0.19298156    -0.26800
F1041       F  0.19689963  0.73940431  0.22806013    -0.19000
H1042       H  0.16564196  0.75614632  0.25240022     0.16700
F1043       F  0.13934523  0.80460160  0.20026310    -0.22700
H1044       H  0.17100113  0.78854656  0.17671966     0.18500
C1045       C  0.10411121  0.85145256  0.12961190    -0.26700
C1046       C  0.11193788  0.87139296  0.12012417     0.06900
C1047       C  0.10198795  0.89148872  0.12653110     0.26500
C1048       C  0.08501597  0.89163789  0.14245419    -0.11200
C1049       C  0.07741248  0.87178947  0.15222694    -0.25200
C1050       C  0.08711376  0.85161657  0.14563132     0.37300
C1051       C  0.13118688  0.87140705  0.10451862     0.06900
F1052       F  0.10880604  0.91104521  0.11746483    -0.18900
H1053       H  0.07793747  0.90739890  0.14738059     0.16700
F1054       F  0.08124518  0.83228350  0.15575510    -0.22700
H1055       H  0.11177353  0.83582668  0.12523454     0.18500
C1056       C  0.15009898  0.88451927  0.10909735     0.26500
C1057       C  0.16810549  0.88479688  0.09444730    -0.11200
C1058       C  0.16790637  0.87195747  0.07485147    -0.25200
C1059       C  0.14895296  0.85876386  0.07019778     0.37400
C1060       C  0.13086582  0.85842361  0.08501373    -0.26800
F1061       F  0.15146940  0.89664360  0.12813559    -0.19000
H1062       H  0.18246844  0.89490432  0.09873233     0.16700
F1063       F  0.14783935  0.84620306  0.05143293    -0.22700
H1064       H  0.11646560  0.84819253  0.08114438     0.18500
C1065       C  0.82575949  0.19026359  0.32282349    -0.26700
C1066       C  0.81222341  0.20869711  0.32688942     0.06900
C1067       C  0.79260563  0.21120030  0.31444834     0.26500
C1068       C  0.78631846  0.19519501  0.29877592    -0.11200
C1069       C  0.79955714  0.17647587  0.29495560    -0.25200
C1070       C  0.81961877  0.17435108  0.30684354     0.37300
C1071       C  0.81733748  0.22444030  0.34521752     0.06900
F1072       F  0.77895916  0.22866131  0.31813199    -0.18900
H1073       H  0.77090265  0.19735686  0.28982839     0.16700
F1074       F  0.83311606  0.15674920  0.30337204    -0.22700
H1075       H  0.84093063  0.18811580  0.33215706     0.18500
C1076       C  0.81893812  0.21681548  0.36727437     0.26500
C1077       C  0.81797656  0.23189206  0.38499286    -0.11200
C1078       C  0.81590694  0.25477271  0.38095618    -0.25200
C1079       C  0.81674507  0.26251883  0.35885531     0.37400
C1080       C  0.81731031  0.24741515  0.34116608    -0.26800
F1081       F  0.81940339  0.19471858  0.37175772    -0.19000
H1082       H  0.81759274  0.22557387  0.40185116     0.16700
F1083       F  0.81488251  0.28450127  0.35420412    -0.22700
H1084       H  0.81638380  0.25358206  0.32431156     0.18500
C1085       C  0.73185191  0.18933420  0.16847171    -0.26700
C1086       C  0.74632554  0.20770788  0.16654162     0.06900
C1087       C  0.76474318  0.20947714  0.18077590     0.26500
C1088       C  0.76905192  0.19287093  0.19614642    -0.11200
C1089       C  0.75501937  0.17421623  0.19792325    -0.25200
C1090       C  0.73599269  0.17273964  0.18432302     0.37300
C1091       C  0.74391831  0.22413345  0.14852769     0.06900
F1092       F  0.77928093  0.22678533  0.17907748    -0.18900
H1093       H  0.78364035  0.19455193  0.20658248     0.16700
F1094       F  0.72196753  0.15500722  0.18572312    -0.22700
H1095       H  0.71765485  0.18773686  0.15754822     0.18500
C1096       C  0.74587582  0.21741009  0.12624060     0.26500
C1097       C  0.74957080  0.23320432  0.10962165    -0.11200
C1098       C  0.75195370  0.25583451  0.11508406    -0.25200
C1099       C  0.74852961  0.26265636  0.13722815     0.37400
C1100       C  0.74424063  0.24688955  0.15372316    -0.26800
F1101       F  0.74659474  0.19550914  0.12084384    -0.19000
H1102       H  0.75227220  0.22751185  0.09277192     0.16700
F1103       F  0.75087151  0.28430261  0.14329162    -0.22700
H1104       H  0.74286433  0.25228613  0.17083677     0.18500
C1105       C  0.90205367  0.88871428  0.31252327    -0.26700
C1106       C  0.87992176  0.88367393  0.30692315     0.06900
C1107       C  0.87396601  0.86151723  0.30211674     0.26500
C1108       C  0.89015607  0.84506624  0.30168653    -0.11200
C1109       C  0.91260626  0.85046142  0.30548856    -0.25200
C1110       C  0.91832192  0.87235093  0.31170652     0.37300
C1111       C  0.86416914  0.90192325  0.30261246     0.06900
F1112       F  0.85298274  0.85610008  0.29567214    -0.18900
H1113       H  0.88530270  0.82841174  0.29669482     0.16700
F1114       F  0.93977978  0.87834746  0.31552388    -0.22700
H1115       H  0.90697454  0.90569403  0.31631503     0.18500
C1116       C  0.84225421  0.90134418  0.31067134     0.26500
C1117       C  0.82698873  0.91728228  0.30367126    -0.11200
C1118       C  0.83336193  0.93406037  0.28865559    -0.25200
C1119       C  0.85564267  0.93530431  0.28164613     0.37400
C1120       C  0.87078149  0.91936180  0.28854558    -0.26800
F1121       F  0.83553917  0.88522180  0.32500953    -0.19000
H1122       H  0.80996347  0.91606601  0.30948252     0.16700
F1123       F  0.86272598  0.95140448  0.26744357    -0.22700
H1124       H  0.88754545  0.92011234  0.28204931     0.18500
C1125       C  0.97935313  0.96983750  0.20719430    -0.26700
C1126       C  0.95908745  0.96623525  0.19591367     0.06900
C1127       C  0.95439066  0.94464024  0.18791144     0.26500
C1128       C  0.96964242  0.92744578  0.19073663    -0.11200
C1129       C  0.98989025  0.93098184  0.20196115    -0.25200
C1130       C  0.99448611  0.95242178  0.21041175     0.37300
C1131       C  0.94262315  0.98458859  0.19277944     0.06900
F1132       F  0.93466751  0.93985179  0.17793677    -0.18900
H1133       H  0.96534175  0.91109638  0.18434806     0.16700
F1134       F  0.01361662  0.95665250  0.22167229    -0.22700
H1135       H  0.98360979  0.98623835  0.21342705     0.18500
C1136       C  0.93680710  0.99901771  0.21034682     0.26500
C1137       C  0.91936291  0.01421137  0.20779216    -0.11200
C1138       C  0.90717077  0.01519440  0.18781788    -0.25200
C1139       C  0.91387924  0.00175789  0.16987424     0.37400
C1140       C  0.93147433  0.98688795  0.17230489    -0.26800
F1141       F  0.94694891  0.99750329  0.23047016    -0.19000
H1142       H  0.91461191  0.02433853  0.22188395     0.16700
F1143       F  0.90307765  0.00256038  0.15003726    -0.22700
H1144       H  0.93601734  0.97667843  0.15820060     0.18500
C1145       C  0.85841920  0.10887375  0.09579294    -0.26700
C1146       C  0.83801998  0.11428816  0.08592876     0.06900
C1147       C  0.81863816  0.10318551  0.09320679     0.26500
C1148       C  0.81969509  0.08785492  0.11086006    -0.11200
C1149       C  0.84002618  0.08363472  0.12156134    -0.25200
C1150       C  0.85943266  0.09390167  0.11347408     0.37300
C1151       C  0.83737051  0.13282455  0.06950837     0.06900
F1152       F  0.79858292  0.10816956  0.08426522    -0.18900
H1153       H  0.80452775  0.08027632  0.11694905     0.16700
F1154       F  0.87942320  0.08983064  0.12304522    -0.22700
H1155       H  0.87358916  0.11686926  0.09023120     0.18500
C1156       C  0.84703651  0.15345884  0.07506057     0.26500
C1157       C  0.84822790  0.17055003  0.05939973    -0.11200
C1158       C  0.83977944  0.16770708  0.03771671    -0.25200
C1159       C  0.82953239  0.14721895  0.03224123     0.37400
C1160       C  0.82833423  0.12995521  0.04805996    -0.26800
F1161       F  0.85533056  0.15715288  0.09579720    -0.19000
H1162       H  0.85583077  0.18616343  0.06436690     0.16700
F1163       F  0.82122587  0.14362339  0.01152570    -0.22700
H1164       H  0.82091392  0.11418360  0.04338622     0.18500
C1165       C  0.73913777  0.14833724  0.44518897    -0.26700
C1166       C  0.71934680  0.14265586  0.43391381     0.06900
C1167       C  0.69965664  0.15349657  0.44009763     0.26500
C1168       C  0.70007269  0.17059566  0.45593591    -0.11200
C1169       C  0.71995716  0.17690202  0.46657277    -0.25200
C1170       C  0.73946773  0.16523409  0.46142635     0.37300
C1171       C  0.71939572  0.12624656  0.41513765     0.06900
F1172       F  0.67989449  0.14754033  0.43084963    -0.18900
H1173       H  0.68480443  0.17903124  0.45978791     0.16700
F1174       F  0.75908042  0.17095653  0.47112901    -0.22700
H1175       H  0.75448550  0.14025321  0.44085991     0.18500
C1176       C  0.70929371  0.13141797  0.39463693     0.26500
C1177       C  0.70899168  0.11599247  0.37716777    -0.11200
C1178       C  0.71902073  0.09509569  0.37939318    -0.25200
C1179       C  0.72950264  0.08999121  0.39973646     0.37400
C1180       C  0.72967990  0.10544357  0.41736705    -0.26800
F1181       F  0.70024774  0.15171065  0.39118951    -0.19000
H1182       H  0.70114325  0.12063916  0.36161666     0.16700
F1183       F  0.73922582  0.06996571  0.40275833    -0.22700
H1184       H  0.73762750  0.10102461  0.43293401     0.18500
C1185       C  0.74632044  0.40250935  0.31959053    -0.26700
C1186       C  0.76156844  0.39774025  0.33659273     0.06900
C1187       C  0.78251969  0.40816367  0.33652968     0.26500
C1188       C  0.78830744  0.42275521  0.31954271    -0.11200
C1189       C  0.77339074  0.42727145  0.30219037    -0.25200
C1190       C  0.75207578  0.41738529  0.30254521     0.37300
C1191       C  0.75672963  0.38063592  0.35351261     0.06900
F1192       F  0.79788704  0.40338715  0.35234062    -0.18900
H1193       H  0.80469641  0.43017611  0.31979198     0.16700
F1194       F  0.73708050  0.42153333  0.28620621    -0.22700
H1195       H  0.73017563  0.39452850  0.31940792     0.18500
C1196       C  0.75889567  0.38573505  0.37622601     0.26500
C1197       C  0.75991091  0.36873797  0.39191556    -0.11200
C1198       C  0.75933442  0.34638099  0.38517337    -0.25200
C1199       C  0.75514138  0.34130773  0.36262415     0.37400
C1200       C  0.75371265  0.35842096  0.34693435    -0.26800
F1201       F  0.76177306  0.40709054  0.38304899    -0.19000
H1202       H  0.76301897  0.37312614  0.40912487     0.16700
F1203       F  0.75389040  0.31990708  0.35548890    -0.22700
H1204       H  0.75202275  0.35425356  0.32949243     0.18500
C1205       C  0.83245178  0.35645806  0.14603412    -0.26700
C1206       C  0.82600792  0.37869636  0.14381137     0.06900
C1207       C  0.81584077  0.38564645  0.12400715     0.26500
C1208       C  0.81105332  0.37023861  0.10720379    -0.11200
C1209       C  0.81614418  0.34762416  0.10998051    -0.25200
C1210       C  0.82747974  0.34097139  0.12935140     0.37300
C1211       C  0.82585841  0.39332074  0.16354380     0.06900
F1212       F  0.80869352  0.40686789  0.12176907    -0.18900
H1213       H  0.80217756  0.37580382  0.09262297     0.16700
F1214       F  0.83238888  0.31930145  0.13296342    -0.22700
H1215       H  0.84006408  0.35084820  0.16129820     0.18500
C1216       C  0.81277283  0.38721054  0.18186923     0.26500
C1217       C  0.80985735  0.40191789  0.19948405    -0.11200
C1218       C  0.81963826  0.42319635  0.19909578    -0.25200
C1219       C  0.83347594  0.42909845  0.18109164     0.37400
C1220       C  0.83649841  0.41419847  0.16338624    -0.26800
F1221       F  0.80143143  0.36759549  0.18198186    -0.19000
H1222       H  0.79911064  0.39693225  0.21301142     0.16700
F1223       F  0.84309741  0.44956168  0.17998318    -0.22700
H1224       H  0.84647292  0.41917498  0.14927734     0.18500
C1225       C  0.87220046  0.68939148  0.22133375    -0.26700
C1226       C  0.86902194  0.71025998  0.23117860     0.06900
C1227       C  0.84865401  0.71493983  0.24147442     0.26500
C1228       C  0.83229982  0.69844052  0.24312341    -0.11200
C1229       C  0.83604332  0.67702593  0.23460362    -0.25200
C1230       C  0.85585913  0.67286759  0.22297570     0.37300
C1231       C  0.88784252  0.72595434  0.23343341     0.06900
F1232       F  0.84524019  0.73486111  0.25150873    -0.18900
H1233       H  0.81725871  0.70209240  0.25211383     0.16700
F1234       F  0.86007649  0.65250222  0.21430410    -0.22700
H1235       H  0.88772458  0.68560736  0.21326663     0.18500
C1236       C  0.90732458  0.71917706  0.24427987     0.26500
C1237       C  0.92334617  0.73485555  0.25044990    -0.11200
C1238       C  0.92031309  0.75746113  0.24571152    -0.25200
C1239       C  0.90169914  0.76401216  0.23325994     0.37400
C1240       C  0.88548266  0.74831626  0.22731754    -0.26800
F1241       F  0.91008963  0.69768803  0.25050432    -0.19000
H1242       H  0.93762959  0.72944066  0.25981316     0.16700
F1243       F  0.89831557  0.78572000  0.22828780    -0.22700
H1244       H  0.87065718  0.75372663  0.21882658     0.18500
C1245       C  0.87303312  0.47161328  0.39624729    -0.26700
C1246       C  0.85909211  0.47553673  0.41451912     0.06900
C1247       C  0.84547094  0.49451137  0.41408570     0.26500
C1248       C  0.84593181  0.50902125  0.39570189    -0.11200
C1249       C  0.85993349  0.50493513  0.37741400    -0.25200
C1250       C  0.87348634  0.48595856  0.37799973     0.37300
C1251       C  0.85913597  0.45945756  0.43352380     0.06900
F1252       F  0.83208713  0.49933849  0.43156342    -0.18900
H1253       H  0.83530447  0.52344873  0.39577931     0.16700
F1254       F  0.88718350  0.48098114  0.36081628    -0.22700
H1255       H  0.88347284  0.45705033  0.39587867     0.18500
C1256       C  0.83925199  0.45083787  0.44257443     0.26500
C1257       C  0.83981781  0.43419851  0.45891440    -0.11200
C1258       C  0.86008877  0.42521570  0.46593919    -0.25200
C1259       C  0.87994368  0.43387354  0.45712041     0.37400
C1260       C  0.87944416  0.45103199  0.44139900    -0.26800
F1261       F  0.81924358  0.45723314  0.43453494    -0.19000
H1262       H  0.82431762  0.42736923  0.46509898     0.16700
F1263       F  0.89984120  0.42555871  0.46351071    -0.22700
H1264       H  0.89500855  0.45734421  0.43488823     0.18500
C1265       C  0.95089451  0.60988475  0.30420698    -0.26700
C1266       C  0.95880983  0.61627741  0.32535008     0.06900
C1267       C  0.95042956  0.60519064  0.34420641     0.26500
C1268       C  0.93342197  0.58926740  0.34207848    -0.11200
C1269       C  0.92462482  0.58369778  0.32108599    -0.25200
C1270       C  0.93403525  0.59365146  0.30203951     0.37300
C1271       C  0.97389219  0.63596018  0.32799898     0.06900
F1272       F  0.95835168  0.61018368  0.36480629    -0.18900
H1273       H  0.92668962  0.58168292  0.35695463     0.16700
F1274       F  0.92583707  0.58894871  0.28148615    -0.22700
H1275       H  0.95697256  0.61825030  0.28946724     0.18500
C1276       C  0.99451967  0.63753257  0.31707488     0.26500
C1277       C  0.00807358  0.65656891  0.31970890    -0.11200
C1278       C  0.00125336  0.67446021  0.33314674    -0.25200
C1279       C  0.98049814  0.67278522  0.34393269     0.37400
C1280       C  0.96715340  0.65377870  0.34141803    -0.26800
F1281       F  0.00169985  0.62054496  0.30415221    -0.19000
H1282       H  0.02388727  0.65733172  0.31117127     0.16700
F1283       F  0.97269336  0.68974403  0.35653625    -0.22700
H1284       H  0.95119082  0.65314380  0.34970464     0.18500
C1285       C  0.71028974  0.44419422  0.07883996    -0.26700
C1286       C  0.71951923  0.46492191  0.07311184     0.06900
C1287       C  0.72855323  0.46756970  0.05161953     0.26500
C1288       C  0.72804487  0.44986781  0.03624498    -0.11200
C1289       C  0.71865105  0.42914430  0.04202611    -0.25200
C1290       C  0.70992152  0.42654616  0.06367103     0.37300
C1291       C  0.72041879  0.48307042  0.09014211     0.06900
F1292       F  0.73763284  0.48733136  0.04539066    -0.18900
H1293       H  0.73499644  0.45238339  0.01982335     0.16700
F1294       F  0.70158628  0.40668694  0.07058280    -0.22700
H1295       H  0.70383206  0.44140888  0.09543574     0.18500
C1296       C  0.70171611  0.48791562  0.10329912     0.26500
C1297       C  0.70340901  0.50282343  0.12111371    -0.11200
C1298       C  0.72366880  0.51338698  0.12629221    -0.25200
C1299       C  0.74213270  0.50951320  0.11249434     0.37400
C1300       C  0.74047711  0.49442943  0.09466861    -0.26800
F1301       F  0.68181612  0.47790857  0.09925338    -0.19000
H1302       H  0.68887790  0.50567378  0.13129425     0.16700
F1303       F  0.76211971  0.51911356  0.11704063    -0.22700
H1304       H  0.75522304  0.49082768  0.08504502     0.18500
C1305       C  0.70466635  0.67581756  0.28707098    -0.26700
C1306       C  0.70902282  0.68750991  0.30686305     0.06900
C1307       C  0.72898223  0.68371814  0.31833506     0.26500
C1308       C  0.74459334  0.66899632  0.30960009    -0.11200
C1309       C  0.74062554  0.65809184  0.28921129    -0.25200
C1310       C  0.72022931  0.66128630  0.27827345     0.37300
C1311       C  0.69320920  0.70481253  0.31385893     0.06900
F1312       F  0.73354089  0.69448226  0.33771031    -0.18900
H1313       H  0.76010646  0.66675010  0.31839430     0.16700
F1314       F  0.71551996  0.65101942  0.25865934    -0.22700
H1315       H  0.68950268  0.67865721  0.27785303     0.18500
C1316       C  0.70020735  0.72707810  0.31601787     0.26500
C1317       C  0.68455177  0.74405561  0.31627423    -0.11200
C1318       C  0.66179653  0.73911074  0.31410279    -0.25200
C1319       C  0.65475226  0.71675450  0.31407604     0.37400
C1320       C  0.67039252  0.69979074  0.31406083    -0.26800
F1321       F  0.72209676  0.73264031  0.31536759    -0.19000
H1322       H  0.69034401  0.76113868  0.31642655     0.16700
F1323       F  0.63297394  0.71122694  0.31165856    -0.22700
H1324       H  0.66472462  0.68276038  0.31242971     0.18500
C1325       C  0.68274485  0.85680547  0.23254255    -0.26700
C1326       C  0.68967678  0.87386557  0.24688990     0.06900
C1327       C  0.68239805  0.87411443  0.26903171     0.26500
C1328       C  0.66822061  0.85743445  0.27676606    -0.11200
C1329       C  0.66107499  0.84023912  0.26250718    -0.25200
C1330       C  0.66843558  0.84007138  0.24023841     0.37300
C1331       C  0.70553063  0.89087333  0.23940822     0.06900
F1332       F  0.68949966  0.89021498  0.28331339    -0.18900
H1333       H  0.66294778  0.85795195  0.29392273     0.16700
F1334       F  0.66212016  0.82366667  0.22598489    -0.17900
H1335       H  0.68851033  0.85641959  0.21552622     0.18500
C1336       C  0.72818602  0.88591572  0.23832570     0.26500
C1337       C  0.74380869  0.90304572  0.23628027    -0.11200
C1338       C  0.73690644  0.92527186  0.23556625    -0.25200
C1339       C  0.71407153  0.92999047  0.23468836     0.37400
C1340       C  0.69848058  0.91282581  0.23674933    -0.26800
F1341       F  0.73525020  0.86476741  0.24131519    -0.19000
H1342       H  0.76121796  0.89904335  0.23710431     0.16700
F1343       F  0.70681878  0.95124780  0.23328741    -0.22700
H1344       H  0.68104637  0.91673665  0.23754726     0.18500
C1345       C  0.35064243  0.83594313  0.19466018    -0.26700
C1346       C  0.37157269  0.82594679  0.19290715     0.06900
C1347       C  0.37617987  0.81262157  0.17427002     0.26500
C1348       C  0.36011904  0.80917164  0.15789988    -0.11200
C1349       C  0.33901983  0.81872743  0.15975979    -0.25200
C1350       C  0.33445518  0.83245021  0.17818221     0.37300
C1351       C  0.38771383  0.82710518  0.21149466     0.06900
F1352       F  0.39572904  0.80169303  0.17253688    -0.18900
H1353       H  0.36402841  0.79842612  0.14406903     0.16700
F1354       F  0.31411207  0.84158805  0.18086348    -0.22700
H1355       H  0.34668884  0.84598730  0.20903727     0.18500
C1356       C  0.41032039  0.83153941  0.20746714     0.26500
C1357       C  0.42612275  0.82729121  0.22392658    -0.11200
C1358       C  0.41959066  0.81888783  0.24475014    -0.25200
C1359       C  0.39679213  0.81650654  0.24944849     0.37400
C1360       C  0.38102110  0.82057014  0.23289656    -0.26800
F1361       F  0.41721078  0.83889949  0.18724080    -0.19000
H1362       H  0.44350172  0.82962090  0.22002610     0.16700
F1363       F  0.38974530  0.80855072  0.26938885    -0.22700
H1364       H  0.36373772  0.81708796  0.23634005     0.18500
C1365       C  0.48836948  0.74573982  0.12179441    -0.26700
C1366       C  0.46853873  0.73318651  0.12317078     0.06900
C1367       C  0.46502182  0.71992402  0.14215560     0.26500
C1368       C  0.48097094  0.71902129  0.15903129    -0.11200
C1369       C  0.50083373  0.73145882  0.15775414    -0.25200
C1370       C  0.50435006  0.74498371  0.13891458     0.37300
C1371       C  0.45160960  0.73360689  0.10490781     0.06900
F1372       F  0.44582549  0.70820801  0.14479153    -0.18900
H1373       H  0.47750524  0.70872490  0.17337634     0.16700
F1374       F  0.52317376  0.75739029  0.13692157    -0.22700
H1375       H  0.49162220  0.75593345  0.10734245     0.18500
C1376       C  0.44417969  0.75372126  0.09559146     0.26500
C1377       C  0.42718340  0.75367891  0.07949255    -0.11200
C1378       C  0.41689654  0.73365871  0.07281393    -0.25200
C1379       C  0.42474088  0.71357062  0.08169562     0.37400
C1380       C  0.44202775  0.71357800  0.09728913    -0.26800
F1381       F  0.45236792  0.77349494  0.10298139    -0.19000
H1382       H  0.42127103  0.76934345  0.07317074     0.16700
F1383       F  0.41550624  0.69382883  0.07551787    -0.22700
H1384       H  0.44768298  0.69785232  0.10371245     0.18500
C1385       C  0.59309704  0.62963777  0.21300241    -0.26700
C1386       C  0.61546523  0.63400143  0.20752784     0.06900
C1387       C  0.62219762  0.65620473  0.20427808     0.26500
C1388       C  0.60699466  0.67348689  0.20594200    -0.11200
C1389       C  0.58456539  0.66932545  0.21098537    -0.25200
C1390       C  0.57771043  0.64713143  0.21466710     0.37300
C1391       C  0.63186255  0.61583300  0.20392548     0.06900
F1392       F  0.64369604  0.66126536  0.19956041    -0.18900
H1393       H  0.61293890  0.69033782  0.20333587     0.16700
F1394       F  0.55612812  0.64227489  0.21918126    -0.22700
H1395       H  0.58743807  0.61267329  0.21539711     0.18500
C1396       C  0.63690804  0.60005780  0.22047080     0.26500
C1397       C  0.65472809  0.58527959  0.21751286    -0.11200
C1398       C  0.66778748  0.58601538  0.19804694    -0.25200
C1399       C  0.66191468  0.60112001  0.18118916     0.37400
C1400       C  0.64416870  0.61563014  0.18409090    -0.26800
F1401       F  0.62541159  0.59967871  0.23989021    -0.19000
H1402       H  0.65880450  0.57384778  0.23075820     0.16700
F1403       F  0.67351861  0.60216146  0.16186136    -0.22700
H1404       H  0.64038673  0.62729090  0.17093499     0.18500
C1405       C  0.60408239  0.94938852  0.35784178    -0.26700
C1406       C  0.60904449  0.95746350  0.33640891     0.06900
C1407       C  0.59863016  0.94715146  0.31798441     0.26500
C1408       C  0.58387643  0.92914570  0.32108424    -0.11200
C1409       C  0.57966601  0.92065005  0.34249079    -0.25200
C1410       C  0.58982087  0.93111771  0.36086827     0.37300
C1411       C  0.62657501  0.97510131  0.33362411     0.06900
F1412       F  0.60374963  0.95348628  0.29691870    -0.18900
H1413       H  0.57656109  0.92113506  0.30661411     0.16700
F1414       F  0.58602644  0.92361470  0.38183664    -0.22700
H1415       H  0.61168868  0.95700598  0.37237521     0.18500
C1416       C  0.62394237  0.99358022  0.31941512     0.26500
C1417       C  0.64113612  0.00945381  0.31705719    -0.11200
C1418       C  0.66124271  0.00729622  0.32883386    -0.25200
C1419       C  0.66363873  0.98892669  0.34318009     0.37400
C1420       C  0.64657781  0.97320811  0.34549271    -0.26800
F1421       F  0.60464735  0.99659584  0.30816358    -0.19000
H1422       H  0.63872630  0.02339738  0.30596475     0.16700
F1423       F  0.68266732  0.98579033  0.35485767    -0.22700
H1424       H  0.64925029  0.95915302  0.35637600     0.18500
C1425       C  0.40684048  0.75527982  0.37124387    -0.26700
C1426       C  0.38651070  0.74789126  0.36231279     0.06900
C1427       C  0.38546338  0.74170559  0.33976535     0.26500
C1428       C  0.40381766  0.74515021  0.32592572    -0.11200
C1429       C  0.42341792  0.75488835  0.33437327    -0.25200
C1430       C  0.42519752  0.75870848  0.35745581     0.37300
C1431       C  0.36605520  0.75045158  0.37565478     0.06900
F1432       F  0.36629703  0.73360010  0.33085385    -0.18900
H1433       H  0.40211896  0.74166918  0.30835539     0.16700
F1434       F  0.44406568  0.76732118  0.36653651    -0.22700
H1435       H  0.40804339  0.76009492  0.38852595     0.18500
C1436       C  0.36488322  0.74275293  0.39769658     0.26500
C1437       C  0.34726747  0.74901197  0.41138409    -0.11200
C1438       C  0.33076586  0.76334731  0.40344009    -0.25200
C1439       C  0.33135696  0.77016364  0.38105760     0.37400
C1440       C  0.34881857  0.76365984  0.36730517    -0.26800
F1441       F  0.38119907  0.72988160  0.40623803    -0.19000
H1442       H  0.34715367  0.74353568  0.42851990     0.16700
F1443       F  0.31549885  0.78367488  0.37262305    -0.22700
H1444       H  0.34954123  0.77003069  0.35050052     0.18500
C1445       C  0.19165778  0.84225936  0.34255287    -0.26700
C1446       C  0.18325920  0.84150686  0.36431822     0.06900
C1447       C  0.16021193  0.84234498  0.36766582     0.26500
C1448       C  0.14580787  0.84177226  0.34942201    -0.11200
C1449       C  0.15419480  0.84000518  0.32764771    -0.25200
C1450       C  0.17729599  0.84136813  0.32430099     0.37300
C1451       C  0.19851645  0.83605846  0.38273487     0.06900
F1452       F  0.15162265  0.84221866  0.38855396    -0.18900
H1453       H  0.12815132  0.84097661  0.35246701     0.16700
F1454       F  0.18612336  0.84020144  0.30355710    -0.22700
H1455       H  0.20938123  0.84168385  0.33967663     0.18500
C1456       C  0.19534882  0.81626013  0.39477131     0.26500
C1457       C  0.21195910  0.80856728  0.40891577    -0.11200
C1458       C  0.23197403  0.82049359  0.41139824    -0.25200
C1459       C  0.23465958  0.84092534  0.40026616     0.37400
C1460       C  0.21807153  0.84853412  0.38592997    -0.26800
F1461       F  0.17691284  0.80345812  0.39162203    -0.19000
H1462       H  0.20940838  0.79294726  0.41737639     0.16700
F1463       F  0.25370671  0.85300676  0.40228017    -0.22700
H1464       H  0.22081526  0.86367505  0.37667447     0.18500
C1465       C  0.32032394  0.74047643  0.69317951    -0.26700
C1466       C  0.31404448  0.71797954  0.69183294     0.06900
C1467       C  0.30586555  0.70948120  0.67155895     0.26500
C1468       C  0.30298209  0.72352425  0.65332877    -0.11200
C1469       C  0.30825696  0.74624972  0.65497889    -0.25200
C1470       C  0.31752907  0.75453468  0.67488255     0.37300
C1471       C  0.31219106  0.70443439  0.71227132     0.06900
F1472       F  0.29882119  0.68803275  0.66990866    -0.18900
H1473       H  0.29575717  0.71684004  0.63831068     0.16700
F1474       F  0.32227365  0.77651132  0.67728588    -0.22700
H1475       H  0.32633715  0.74733363  0.70868139     0.18500
C1476       C  0.32035260  0.68265374  0.71309533     0.26500
C1477       C  0.31337409  0.66819396  0.72996645    -0.11200
C1478       C  0.29845790  0.67542315  0.74640262    -0.25200
C1479       C  0.29230962  0.69793415  0.74684604     0.37400
C1480       C  0.29906789  0.71224668  0.72984841    -0.26800
F1481       F  0.33425289  0.67512157  0.69704885    -0.19000
H1482       H  0.31879542  0.65114238  0.72954356     0.16700
F1483       F  0.27884605  0.70593309  0.76303178    -0.22700
H1484       H  0.29282102  0.72899305  0.72964750     0.18500
C1485       C  0.24983781  0.90724076  0.70476087    -0.26700
C1486       C  0.26410891  0.90079901  0.68759487     0.06900
C1487       C  0.28500032  0.91117792  0.68549116     0.26500
C1488       C  0.29200240  0.92689564  0.70121584    -0.11200
C1489       C  0.27810745  0.93268662  0.71905005    -0.25200
C1490       C  0.25663132  0.92330585  0.72022669     0.37300
C1491       C  0.25841532  0.88169262  0.67328222     0.06900
F1492       F  0.29916263  0.90505346  0.66904652    -0.18900
H1493       H  0.30846987  0.93398124  0.69985116     0.16700
F1494       F  0.24268357  0.92859898  0.73709670    -0.22700
H1495       H  0.23373898  0.89935661  0.70653465     0.18500
C1496       C  0.25719929  0.86025252  0.68243818     0.26500
C1497       C  0.25754517  0.84167742  0.66850548    -0.11200
C1498       C  0.25871735  0.84430805  0.64530091    -0.25200
C1499       C  0.25743755  0.86581203  0.63615993     0.37400
C1500       C  0.25754619  0.88436928  0.65013448    -0.26800
F1501       F  0.25769347  0.85724490  0.70483177    -0.19000
H1502       H  0.25829450  0.82535506  0.67589728     0.16700
F1503       F  0.25808351  0.86907807  0.61380766    -0.22700
H1504       H  0.25826137  0.90079651  0.64292869     0.18500
C1505       C  0.20700624  0.62788700  0.64249509    -0.26700
C1506       C  0.21639220  0.62112398  0.62222093     0.06900
C1507       C  0.22534626  0.59961474  0.62072145     0.26500
C1508       C  0.22388523  0.58493706  0.63886152    -0.11200
C1509       C  0.21367855  0.59153884  0.65883119    -0.25200
C1510       C  0.20561821  0.61337215  0.66054512     0.37300
C1511       C  0.21628500  0.63674117  0.60295951     0.06900
F1512       F  0.23499316  0.59255627  0.60160605    -0.18900
H1513       H  0.23047089  0.56839534  0.63719996     0.16700
F1514       F  0.19670353  0.62097463  0.67982862    -0.22700
H1515       H  0.20077034  0.64454984  0.64441696     0.18500
C1516       C  0.19690352  0.64854885  0.59767288     0.26500
C1517       C  0.19724473  0.66499072  0.58127207    -0.11200
C1518       C  0.21676687  0.66975812  0.56936664    -0.25200
C1519       C  0.23589026  0.65720022  0.57375228     0.37400
C1520       C  0.23567377  0.64094702  0.59053341    -0.26800
F1521       F  0.17754559  0.64430605  0.60849668    -0.19000
H1522       H  0.18231357  0.67417458  0.57809280     0.16700
F1523       F  0.25512853  0.66144572  0.56274049    -0.22700
H1524       H  0.25078974  0.63231346  0.59434079     0.18500
C1525       C  0.11506019  0.72114010  0.41596298    -0.26700
C1526       C  0.10956614  0.73161040  0.43612978     0.06900
C1527       C  0.08937927  0.74323499  0.43736409     0.26500
C1528       C  0.07497716  0.74389519  0.41895039    -0.11200
C1529       C  0.08034944  0.73299596  0.39895309    -0.25200
C1530       C  0.10068724  0.72164034  0.39770334     0.37300
C1531       C  0.12538371  0.73052930  0.45529418     0.06900
F1532       F  0.08331054  0.75364828  0.45643384    -0.18900
H1533       H  0.05960421  0.75290103  0.42037258     0.16700
F1534       F  0.10702620  0.71120325  0.37872559    -0.22700
H1535       H  0.13073509  0.71278335  0.41414070     0.18500
C1536       C  0.13658868  0.71064686  0.46016737     0.26500
C1537       C  0.15362339  0.71036844  0.47596043    -0.11200
C1538       C  0.15934901  0.72963544  0.48793951    -0.25200
C1539       C  0.14717950  0.74914270  0.48433529     0.37400
C1540       C  0.13057739  0.74965558  0.46791789    -0.26800
F1541       F  0.13119412  0.69137426  0.44959723    -0.19000
H1542       H  0.16241826  0.69511209  0.47870915     0.16700
F1543       F  0.15210166  0.76804958  0.49575523    -0.22700
H1544       H  0.12251796  0.76515820  0.46452514     0.18500
C1545       C  0.48085438  0.84310865  0.44115705    -0.26700
C1546       C  0.46757284  0.86209980  0.44378795     0.06900
C1547       C  0.47258906  0.88102794  0.43092630     0.26500
C1548       C  0.48941662  0.88047192  0.41495224    -0.11200
C1549       C  0.50194324  0.86120293  0.41145813    -0.25200
C1550       C  0.49788566  0.84259585  0.42514703     0.37300
C1551       C  0.44808453  0.86185769  0.45921268     0.06900
F1552       F  0.46113982  0.90015592  0.43364955    -0.18900
H1553       H  0.49233938  0.89512147  0.40490934     0.16700
F1554       F  0.50937692  0.82351533  0.42220154    -0.22700
H1555       H  0.47743507  0.82831767  0.45086812     0.18500
C1556       C  0.42718522  0.86956246  0.45214252     0.26500
C1557       C  0.40894652  0.86906281  0.46655561    -0.11200
C1558       C  0.41087337  0.86062156  0.48828479    -0.25200
C1559       C  0.43175432  0.85305788  0.49546392     0.37400
C1560       C  0.45008896  0.85359716  0.48102499    -0.26800
F1561       F  0.42408654  0.87683676  0.43098610    -0.19000
H1562       H  0.39309030  0.87486588  0.46045330     0.16700
F1563       F  0.43456255  0.84541504  0.51651443    -0.22700
H1564       H  0.46597005  0.84772690  0.48697758     0.18500
C1565       C  0.37546105  0.94377460  0.59001918    -0.26700
C1566       C  0.35622180  0.95544131  0.59586167     0.06900
C1567       C  0.33584476  0.94896664  0.58618504     0.26500
C1568       C  0.33480320  0.93085025  0.57137916    -0.11200
C1569       C  0.35394924  0.91858439  0.56639030    -0.25200
C1570       C  0.37435367  0.92540714  0.57576569     0.37300
C1571       C  0.35746548  0.97287335  0.61351177     0.06900
F1572       F  0.31677288  0.95924146  0.59211031    -0.18900
H1573       H  0.31884844  0.92576282  0.56465089     0.16700
F1574       F  0.39328233  0.91412313  0.57142997    -0.22700
H1575       H  0.39137762  0.94853303  0.59706088     0.18500
C1576       C  0.36789962  0.96811203  0.63387582     0.26500
C1577       C  0.36942685  0.98419172  0.65055425    -0.11200
C1578       C  0.36037257  0.00544497  0.64766105    -0.25200
C1579       C  0.34964007  0.01028521  0.62737644     0.37400
C1580       C  0.34829984  0.99411138  0.61043031    -0.26800
F1581       F  0.37606787  0.94756639  0.63799235    -0.19000
H1582       H  0.37744242  0.97974224  0.66604880     0.16700
F1583       F  0.34058852  0.03055432  0.62384596    -0.22700
H1584       H  0.34023301  0.99819580  0.59487155     0.18500
loop_ 
_geom_bond_atom_site_label_1 
_geom_bond_atom_site_label_2 
_geom_bond_distance 
_geom_bond_site_symmetry_2 
_ccdc_geom_bond_type 
O1            C4   1.274       .  A
O1           Cd6   2.504       .  S
C2           O11   1.268       .  A
C2            O7   1.274       .  A
C2         C1569   1.487       .  S
O3            C9   1.274       .  A
O3           Cd6   2.521       .  S
C4           O12   1.265       .  A
C4           C41   1.469       .  S
C5           O10   1.274       .  A
C5            O8   1.269       .  A
C5         C1558   1.489       .  S
Cd6          O13   2.371       .  S
Cd6          O12   2.412       .  S
Cd6          O11   2.434       .  S
Cd6           O7   2.506       .  S
Cd6          O10   2.486       .  S
Cd6           O8   2.444       .  S
C9           O13   1.264       .  A
C9           C35   1.466       .  S
O14          C17   1.276       .  A
O14         Cd19   2.486       .  S
C15          O24   1.268       .  A
C15          O20   1.273       .  A
C15        C1518   1.483       .  S
O16          C22   1.275       .  A
O16         Cd19   2.488       .  S
C17          O25   1.265       .  A
C17          C48   1.461       .  S
C18          O23   1.273       .  A
C18          O21   1.268       .  A
C18        C1538   1.479       .  S
Cd19         O26   2.364       .  S
Cd19         O25   2.371       .  S
Cd19         O24   2.426       .  S
Cd19         O20   2.485       .  S
Cd19         O23   2.472       .  S
Cd19         O21   2.414       .  S
C22          O26   1.264       .  A
C22          C28   1.460       .  S
O27          C30   1.263       .  A
O27         Cd32   2.439       .  S
C28          O37   1.264       .  A
C28          O33   1.265       .  A
O29          C35   1.267       .  A
O29         Cd32   2.546       .  S
C30          O38   1.265       .  A
C30        C1498   1.473       .  S
C31          O36   1.267       .  A
C31          O34   1.265       .  A
C31        C1469   1.475       .  S
Cd32         O39   2.396       .  S
Cd32         O38   2.444       .  S
Cd32         O37   2.409       .  S
Cd32         O33   2.500       .  S
Cd32         O36   2.456       .  S
Cd32         O34   2.440       .  S
C35          O39   1.259       .  A
O40          C43   1.267       .  A
O40         Cd45   2.456       .  S
C41          O50   1.262       .  A
C41          O46   1.262       .  A
O42          C48   1.265       .  A
O42         Cd45   2.500       .  S
C43          O51   1.266       .  A
C43        C1458   1.476       .  S
C44          O49   1.264       .  A
C44          O47   1.263       .  A
C44        C1438   1.476       .  S
Cd45         O52   2.412       .  S
Cd45         O51   2.437       .  S
Cd45         O50   2.455       .  S
Cd45         O46   2.513       .  S
Cd45         O49   2.467       .  S
Cd45         O47   2.463       .  S
C48          O52   1.264       .  A
O53          C56   1.273       .  A
O53         Cd58   2.518       .  S
C54          O63   1.264       .  A
C54          O59   1.276       .  A
C54         C100   1.463       .  S
O55          C61   1.274       .  A
O55         Cd58   2.496       .  S
C56          O64   1.267       .  A
C56        C1549   1.488       .  S
C57          O62   1.272       .  A
C57          O60   1.269       .  A
C57        C1409   1.489       .  S
Cd58         O65   2.389       .  S
Cd58         O64   2.426       .  S
Cd58         O63   2.373       .  S
Cd58         O59   2.500       .  S
Cd58         O62   2.505       .  S
Cd58         O60   2.461       .  S
C61          O65   1.263       .  A
C61          C80   1.463       .  S
O66          C69   1.274       .  A
O66         Cd71   2.521       .  S
C67          O76   1.266       .  A
C67          O72   1.275       .  A
C67          C83   1.470       .  S
O68          C74   1.277       .  A
O68         Cd71   2.511       .  S
C69          O77   1.269       .  A
C69        C1389   1.493       .  S
C70          O75   1.275       .  A
C70          O73   1.268       .  A
C70        C1369   1.492       .  S
Cd71         O78   2.392       .  S
Cd71         O77   2.429       .  S
Cd71         O76   2.401       .  S
Cd71         O72   2.507       .  S
Cd71         O75   2.523       .  S
Cd71         O73   2.416       .  S
C74          O78   1.266       .  A
C74          C95   1.471       .  S
O79          C82   1.264       .  A
O79         Cd84   2.456       .  S
C80          O89   1.264       .  A
C80          O85   1.264       .  A
O81          C87   1.267       .  A
O81         Cd84   2.463       .  S
C82          O90   1.264       .  A
C82        C1358   1.477       .  S
C83          O88   1.265       .  A
C83          O86   1.261       .  A
Cd84         O91   2.452       .  S
Cd84         O90   2.457       .  S
Cd84         O89   2.428       .  S
Cd84         O85   2.502       .  S
Cd84         O88   2.529       .  S
Cd84         O86   2.432       .  S
C87          O91   1.266       .  A
C87        C1429   1.480       .  S
O92          C95   1.266       .  A
O92         Cd97   2.523       .  S
C93         O102   1.265       .  A
C93          O98   1.268       .  A
C93        C1329   1.476       .  S
O94         C100   1.264       .  A
O94         Cd97   2.515       .  S
C95         O103   1.264       .  A
C96         O101   1.264       .  A
C96          O99   1.262       .  A
C96        C1318   1.475       .  S
Cd97        O104   2.419       .  S
Cd97        O103   2.437       .  S
Cd97        O102   2.423       .  S
Cd97         O98   2.463       .  S
Cd97        O101   2.472       .  S
Cd97         O99   2.446       .  S
C100        O104   1.263       .  A
O105        C108   1.275       .  A
O105       Cd110   2.505       .  S
C106        O115   1.268       .  A
C106        O111   1.272       .  A
C106       C1298   1.486       .  S
O107        C113   1.274       .  A
O107       Cd110   2.501       .  S
C108        O116   1.262       .  A
C108        C139   1.460       .  S
C109        O114   1.273       .  A
C109        O112   1.269       .  A
C109       C1398   1.494       .  S
Cd110       O117   2.402       .  S
Cd110       O116   2.352       .  S
Cd110       O115   2.428       .  S
Cd110       O111   2.504       .  S
Cd110       O114   2.520       .  S
Cd110       O112   2.446       .  S
C113        O117   1.264       .  A
C113        C145   1.467       .  S
O118        C121   1.275       .  A
O118       Cd123   2.517       .  S
C119        O128   1.267       .  A
C119        O124   1.272       .  A
C119       C1269   1.489       .  S
O120        C126   1.274       .  A
O120       Cd123   2.498       .  S
C121        O129   1.264       .  A
C121        C152   1.469       .  S
C122        O127   1.274       .  A
C122        O125   1.268       .  A
C122       C1249   1.493       .  S
Cd123       O130   2.407       .  S
Cd123       O129   2.399       .  S
Cd123       O128   2.456       .  S
Cd123       O124   2.520       .  S
Cd123       O127   2.519       .  S
Cd123       O125   2.424       .  S
C126        O130   1.264       .  A
C126        C132   1.467       .  S
O131        C134   1.268       .  A
O131       Cd136   2.455       .  S
C132        O141   1.263       .  A
C132        O137   1.264       .  A
O133        C139   1.265       .  A
O133       Cd136   2.519       .  S
C134        O142   1.267       .  A
C134       C1309   1.477       .  S
C135        O140   1.264       .  A
C135        O138   1.263       .  A
C135       C1229   1.476       .  S
Cd136       O143   2.396       .  S
Cd136       O142   2.432       .  S
Cd136       O141   2.442       .  S
Cd136       O137   2.504       .  S
Cd136       O140   2.457       .  S
Cd136       O138   2.453       .  S
C139        O143   1.263       .  A
O144        C147   1.267       .  A
O144       Cd149   2.476       .  S
C145        O154   1.264       .  A
C145        O150   1.264       .  A
O146        C152   1.266       .  A
O146       Cd149   2.520       .  S
C147        O155   1.266       .  A
C147       C1189   1.476       .  S
C148        O153   1.266       .  A
C148        O151   1.263       .  A
C148       C1218   1.478       .  S
Cd149       O156   2.428       .  S
Cd149       O155   2.410       .  S
Cd149       O154   2.437       .  S
Cd149       O150   2.504       .  S
Cd149       O153   2.497       .  S
Cd149       O151   2.424       .  S
C152        O156   1.264       .  A
O157        C160   1.275       .  A
O157       Cd162   2.497       .  S
C158        O167   1.267       .  A
C158        O163   1.275       .  A
C158       C1418   1.494       .  S
O159        C165   1.275       .  A
O159       Cd162   2.503       .  S
C160        O168   1.266       .  A
C160        C204   1.467       .  S
C161        O166   1.274       .  A
C161        O164   1.269       .  A
C161       C1178   1.493       .  S
Cd162       O169   2.407       .  S
Cd162       O168   2.390       .  S
Cd162       O167   2.420       .  S
Cd162       O163   2.520       .  S
Cd162       O166   2.507       .  S
Cd162       O164   2.448       .  S
C165        O169   1.265       .  A
C165        C184   1.469       .  S
O170        C173   1.272       .  A
O170       Cd175   2.500       .  S
C171        O180   1.263       .  A
C171        O176   1.274       .  A
C171        C191   1.460       .  S
O172        C178   1.273       .  A
O172       Cd175   2.511       .  S
C173        O181   1.268       .  A
C173       C1149   1.480       .  S
C174        O179   1.274       .  A
C174        O177   1.263       .  A
C174        C197   1.469       .  S
Cd175       O182   2.447       .  S
Cd175       O181   2.413       .  S
Cd175       O180   2.360       .  S
Cd175       O176   2.502       .  S
Cd175       O179   2.508       .  S
Cd175       O177   2.409       .  S
C178        O182   1.268       .  A
C178       C1138   1.492       .  S
O183        C186   1.267       .  A
O183       Cd188   2.477       .  S
C184        O193   1.264       .  A
C184        O189   1.266   1_545  A
O185        C191   1.266   1_565  A
O185       Cd188   2.516       .  S
C186        O194   1.263       .  A
C186       C1118   1.477       .  S
C187        O192   1.262       .  A
C187        O190   1.265       .  A
C187       C1338   1.469       .  S
Cd188       O195   2.390   1_565  S
Cd188       O194   2.426       .  S
Cd188       O193   2.432   1_565  S
Cd188       O189   2.510       .  S
Cd188       O192   2.422       .  S
Cd188       O190   2.456       .  S
C191        O195   1.263       .  A
O196        C199   1.265       .  A
O196       Cd201   2.443       .  S
C197        O206   1.265       .  A
C197        O202   1.264       .  A
O198        C204   1.267       .  A
O198       Cd201   2.514       .  S
C199        O207   1.267       .  A
C199       C1069   1.480       .  S
C200        O205   1.264       .  A
C200        O203   1.269       .  A
C200       C1089   1.474       .  S
Cd201       O208   2.423       .  S
Cd201       O207   2.468       .  S
Cd201       O206   2.447       .  S
Cd201       O202   2.504       .  S
Cd201       O205   2.392       .  S
Cd201       O203   2.506       .  S
C204        O208   1.263       .  A
O209        C212   1.275       .  A
O209       Cd214   2.510       .  S
C210        O219   1.265       .  A
C210        O215   1.278       .  A
C210        C230   1.468       .  S
O211        C217   1.276       .  A
O211       Cd214   2.491       .  S
C212        O220   1.270       .  A
C212       C1129   1.496   1_455  S
C213        O218   1.274       .  A
C213        O216   1.268       .  A
C213       C1049   1.486       .  S
Cd214       O221   2.416       .  S
Cd214       O220   2.448       .  S
Cd214       O219   2.380       .  S
Cd214       O215   2.506       .  S
Cd214       O218   2.501       .  S
Cd214       O216   2.448       .  S
C217        O221   1.268       .  A
C217        C251   1.471   1_455  S
O222        C225   1.263       .  A
O222       Cd227   2.509       .  S
C223        O232   1.266       .  A
C223        O228   1.265       .  A
C223       C1038   1.474       .  S
O224        C230   1.266       .  A
O224       Cd227   2.523       .  S
C225        O233   1.263       .  A
C225        C243   1.467       .  S
C226        O231   1.265       .  A
C226        O229   1.263       .  A
C226       C1449   1.477       .  S
Cd227       O234   2.425       .  S
Cd227       O233   2.445       .  S
Cd227       O232   2.451       .  S
Cd227       O228   2.426       .  S
Cd227       O231   2.469       .  S
Cd227       O229   2.451       .  S
C230        O234   1.264       .  A
O235        C238   1.274       .  A
O235       Cd240   2.501       .  S
C236        O245   1.265       .  A
C236        O241   1.276       .  A
C236        C256   1.468   1_455  S
O237        C243   1.276       .  A
O237       Cd240   2.492       .  S
C238        O246   1.268       .  A
C238       C1529   1.490       .  S
C239        O244   1.274       .  A
C239        O242   1.268       .  A
C239       C1278   1.495       .  S
Cd240       O247   2.402       .  S
Cd240       O246   2.432       .  S
Cd240       O245   2.388       .  S
Cd240       O241   2.510       .  S
Cd240       O244   2.514       .  S
Cd240       O242   2.442       .  S
C243        O247   1.266       .  A
O248        C251   1.265       .  A
O248       Cd253   2.505       .  S
C249        O258   1.264       .  A
C249        O254   1.267       .  A
C249       C1238   1.470       .  S
O250        C256   1.266       .  A
O250       Cd253   2.525       .  S
C251        O259   1.265       .  A
C252        O257   1.264       .  A
C252        O255   1.263       .  A
C252       C1109   1.478       .  S
Cd253       O260   2.421       .  S
Cd253       O259   2.457       .  S
Cd253       O258   2.415       .  S
Cd253       O254   2.462       .  S
Cd253       O257   2.462       .  S
Cd253       O255   2.457       .  S
C256        O260   1.263       .  A
O261        C264   1.275       .  A
O261       Cd266   2.499       .  S
C262        O271   1.267       .  A
C262        O267   1.272       .  A
C262       C1378   1.487       .  S
O263        C269   1.274       .  A
O263       Cd266   2.513       .  S
C264        O272   1.264       .  A
C264        C308   1.466   1_554  S
C265        O270   1.273       .  A
C265        O268   1.269       .  A
C265       C1009   1.487   1_554  S
Cd266       O273   2.402       .  S
Cd266       O272   2.394       .  S
Cd266       O271   2.441       .  S
Cd266       O267   2.512       .  S
Cd266       O270   2.493       .  S
Cd266       O268   2.424       .  S
C269        O273   1.264       .  A
C269        C288   1.470       .  S
O274        C277   1.274       .  A
O274       Cd279   2.501       .  S
C275        O284   1.265       .  A
C275        O280   1.274       .  A
C275        C301   1.467   1_554  S
O276        C282   1.274       .  A
O276       Cd279   2.519       .  S
C277        O285   1.270       .  A
C277       C1058   1.492       .  S
C278        O283   1.277       .  A
C278        O281   1.266       .  A
C278        C295   1.480       .  S
Cd279       O286   2.453       .  S
Cd279       O285   2.431       .  S
Cd279       O284   2.410       .  S
Cd279       O280   2.488       .  S
Cd279       O283   2.536       .  S
Cd279       O281   2.414       .  S
C282        O286   1.268       .  A
C282        C989   1.491   1_554  S
O287        C290   1.265       .  A
O287       Cd292   2.471       .  S
C288        O297   1.265       .  A
C288        O293   1.265       .  A
O289        C295   1.266       .  A
O289       Cd292   2.556       .  S
C290        O298   1.261       .  A
C290       C1029   1.476       .  S
C291        O296   1.269       .  A
C291        O294   1.265       .  A
C291       C1349   1.478       .  S
Cd292       O299   2.462       .  S
Cd292       O298   2.451       .  S
Cd292       O297   2.439       .  S
Cd292       O293   2.520       .  S
Cd292       O296   2.491       .  S
Cd292       O294   2.418       .  S
C295        O299   1.263       .  A
O300        C303   1.266       .  A
O300       Cd305   2.479       .  S
C301        O310   1.265       .  A
C301        O306   1.264       .  A
O302        C308   1.262       .  A
O302       Cd305   2.516       .  S
C303        O311   1.263       .  A
C303        C969   1.479       .  S
C304        O309   1.267       .  A
C304        O307   1.266       .  A
C304        C949   1.474       .  S
Cd305       O312   2.445       .  S
Cd305       O311   2.443       .  S
Cd305       O310   2.450       .  S
Cd305       O306   2.497       .  S
Cd305       O309   2.453       .  S
Cd305       O307   2.419       .  S
C308        O312   1.262       .  A
O313        C316   1.275       .  A
O313       Cd318   2.517       .  S
C314        O323   1.264       .  A
C314        O319   1.276       .  A
C314        C343   1.467       .  S
O315        C321   1.275       .  A
O315       Cd318   2.496       .  S
C316        O324   1.267       .  A
C316       C1018   1.489       .  S
C317        O322   1.273       .  A
C317        O320   1.269       .  A
C317        C929   1.490       .  S
Cd318       O325   2.418       .  S
Cd318       O324   2.423       .  S
Cd318       O323   2.369       .  S
Cd318       O319   2.520       .  S
Cd318       O322   2.507       .  S
Cd318       O320   2.465       .  S
C321        O325   1.265       .  A
C321        C353   1.469       .  S
O326        C329   1.273       .  A
O326       Cd331   2.502       .  S
C327        O336   1.265       .  A
C327        O332   1.275       .  A
C327        C356   1.466       .  S
O328        C334   1.273       .  A
O328       Cd331   2.505       .  S
C329        O337   1.268       .  A
C329        C918   1.491       .  S
C330        O335   1.274       .  A
C330        O333   1.268       .  A
C330       C1509   1.485       .  S
Cd331       O338   2.410       .  S
Cd331       O337   2.453       .  S
Cd331       O336   2.374       .  S
Cd331       O332   2.515       .  S
Cd331       O335   2.490       .  S
Cd331       O333   2.413       .  S
C334        O338   1.264       .  A
C334        C340   1.467       .  S
O339        C342   1.264       .  A
O339       Cd344   2.443       .  S
C340        O349   1.267       .  A
C340        O345   1.267       .  A
O341        C347   1.268       .  A
O341       Cd344   2.493       .  S
C342        O350   1.265       .  A
C342        C889   1.479       .  S
C343        O348   1.266       .  A
C343        O346   1.263       .  A
Cd344       O351   2.411       .  S
Cd344       O350   2.478       .  S
Cd344       O349   2.430       .  S
Cd344       O345   2.493       .  S
Cd344       O348   2.529       .  S
Cd344       O346   2.409       .  S
C347        O351   1.262       .  A
C347        C869   1.476       .  S
O352        C355   1.264       .  A
O352       Cd357   2.472       .  S
C353        O362   1.266       .  A
C353        O358   1.264       .  A
O354        C360   1.267       .  A
O354       Cd357   2.462       .  S
C355        O363   1.264       .  A
C355       C1478   1.479       .  S
C356        O361   1.264       .  A
C356        O359   1.258       .  A
Cd357       O364   2.477       .  S
Cd357       O363   2.452       .  S
Cd357       O362   2.451       .  S
Cd357       O358   2.495       .  S
Cd357       O361   2.552       .  S
Cd357       O359   2.414       .  S
C360        O364   1.266       .  A
C360        C978   1.483       .  S
O365        C368   1.273       .  A
O365       Cd370   2.508       .  S
C366        O375   1.265       .  A
C366        O371   1.276       .  A
C366        C386   1.462       .  S
O367        C373   1.275       .  A
O367       Cd370   2.493       .  S
C368        O376   1.267       .  A
C368        C998   1.490       .  S
C369        O374   1.273       .  A
C369        O372   1.267       .  A
C369        C849   1.492       .  S
Cd370       O377   2.417       .  S
Cd370       O376   2.422       .  S
Cd370       O375   2.362       .  S
Cd370       O371   2.506       .  S
Cd370       O374   2.518       .  S
Cd370       O372   2.427       .  S
C373        O377   1.266       .  A
C373        C405   1.470   1_545  S
O378        C381   1.264       .  A
O378       Cd383   2.517       .  S
C379        O388   1.265       .  A
C379        O384   1.267       .  A
C379        C809   1.473       .  S
O380        C386   1.265       .  A
O380       Cd383   2.521       .  S
C381        O389   1.262       .  A
C381        C399   1.467       .  S
C382        O387   1.265       .  A
C382        O385   1.265       .  A
C382        C829   1.478       .  S
Cd383       O390   2.404       .  S
Cd383       O389   2.435       .  S
Cd383       O388   2.437       .  S
Cd383       O384   2.441       .  S
Cd383       O387   2.453       .  S
Cd383       O385   2.459       .  S
C386        O390   1.262       .  A
O391        C394   1.274       .  A
O391       Cd396   2.516       .  S
C392        O401   1.265       .  A
C392        O397   1.276       .  A
C392        C408   1.469       .  S
O393        C399   1.275       .  A
O393       Cd396   2.496       .  S
C394        O402   1.268       .  A
C394        C798   1.492       .  S
C395        O400   1.274       .  A
C395        O398   1.268       .  A
C395       C1578   1.489       .  S
Cd396       O403   2.392       .  S
Cd396       O402   2.431       .  S
Cd396       O401   2.382       .  S
Cd396       O397   2.516       .  S
Cd396       O400   2.515       .  S
Cd396       O398   2.410       .  S
C399        O403   1.266       .  A
O404        C407   1.268       .  A
O404       Cd409   2.455       .  S
C405        O414   1.264       .  A
C405        O410   1.265       .  A
O406        C412   1.267       .  A
O406       Cd409   2.494       .  S
C407        O415   1.267       .  A
C407       C1489   1.477       .  S
C408        O413   1.268   1_545  A
C408        O411   1.264       .  A
Cd409       O416   2.445       .  S
Cd409       O415   2.458       .  S
Cd409       O414   2.450       .  S
Cd409       O410   2.512       .  S
Cd409       O413   2.528       .  S
Cd409       O411   2.410   1_565  S
C412        O416   1.263       .  A
C412        C958   1.481       .  S
O417        C420   1.274       .  A
O417       Cd422   2.515       .  S
C418        O427   1.268       .  A
C418        O423   1.273       .  A
C418        C769   1.480       .  S
O419        C425   1.275       .  A
O419       Cd422   2.505       .  S
C420        O428   1.264       .  A
C420        C464   1.468       .  S
C421        O426   1.273       .  A
C421        O424   1.268       .  A
C421        C789   1.487       .  S
Cd422       O429   2.388       .  S
Cd422       O428   2.387       .  S
Cd422       O427   2.421       .  S
Cd422       O423   2.485       .  S
Cd422       O426   2.500       .  S
Cd422       O424   2.440       .  S
C425        O429   1.264       .  A
C425        C444   1.466       .  S
O430        C433   1.275       .  A
O430       Cd435   2.541       .  S
C431        O440   1.263       .  A
C431        O436   1.276       .  A
C431        C451   1.471       .  S
O432        C438   1.271       .  A
O432       Cd435   2.506       .  S
C433        O441   1.267       .  A
C433        C938   1.497       .  S
C434        O439   1.273       .  A
C434        O437   1.267       .  A
C434        C457   1.464       .  S
Cd435       O442   2.437       .  S
Cd435       O441   2.425       .  S
Cd435       O440   2.389       .  S
Cd435       O436   2.529       .  S
Cd435       O439   2.470       .  S
Cd435       O437   2.410       .  S
C438        O442   1.268       .  A
C438        C749   1.484       .  S
O443        C446   1.265       .  A
O443       Cd448   2.459       .  S
C444        O453   1.263       .  A
C444        O449   1.263       .  A
O445        C451   1.265       .  A
O445       Cd448   2.533       .  S
C446        O454   1.266       .  A
C446        C729   1.476       .  S
C447        O452   1.266       .  A
C447        O450   1.264       .  A
C447        C709   1.473       .  S
Cd448       O455   2.430       .  S
Cd448       O454   2.436       .  S
Cd448       O453   2.434       .  S
Cd448       O449   2.513       .  S
Cd448       O452   2.463       .  S
Cd448       O450   2.433       .  S
C451        O455   1.263       .  A
O456        C459   1.267       .  A
O456       Cd461   2.481       .  S
C457        O466   1.263       .  A
C457        O462   1.264       .  A
O458        C464   1.266       .  A
O458       Cd461   2.527       .  S
C459        O467   1.266       .  A
C459        C838   1.479       .  S
C460        O465   1.263       .  A
C460        O463   1.263       .  A
C460        C898   1.476       .  S
Cd461       O468   2.417       .  S
Cd461       O467   2.435       .  S
Cd461       O466   2.446       .  S
Cd461       O462   2.492       .  S
Cd461       O465   2.471       .  S
Cd461       O463   2.446       .  S
C464        O468   1.263       .  A
O469        C472   1.272       .  A
O469       Cd474   2.502       .  S
C470        O479   1.267       .  A
C470        O475   1.275       .  A
C470        C485   1.466       .  S
O471        C477   1.278       .  A
O471       Cd474   2.529       .  S
C472        O480   1.269       .  A
C472        C689   1.492       .  S
C473        O478   1.275       .  A
C473        O476   1.268       .  A
C473       C1158   1.494       .  S
Cd474       O481   2.377       .  S
Cd474       O480   2.440       .  S
Cd474       O479   2.387   1_556  S
Cd474       O475   2.487   1_556  S
Cd474       O478   2.532   1_556  S
Cd474       O476   2.432   1_556  S
C477        O481   1.264       .  A
C477        C512   1.472       .  S
O482        C485   1.265       .  A
O482       Cd487   2.525       .  S
C483        O492   1.267       .  A
C483        O488   1.265       .  A
C483       C1209   1.480       .  S
O484        C490   1.265       .  A
O484       Cd487   2.513       .  S
C485        O493   1.262       .  A
C486        O491   1.264       .  A
C486        O489   1.263       .  A
C486       C1098   1.475       .  S
Cd487       O494   2.429       .  S
Cd487       O493   2.436       .  S
Cd487       O492   2.465       .  S
Cd487       O488   2.444       .  S
Cd487       O491   2.451       .  S
Cd487       O489   2.447       .  S
C490        O494   1.265       .  A
C490        C496   1.468       .  S
O495        C498   1.274       .  A
O495       Cd500   2.500       .  S
C496        O505   1.265       .  A
C496        O501   1.277       .  A
O497        C503   1.277       .  A
O497       Cd500   2.489       .  S
C498        O506   1.269       .  A
C498        C758   1.492       .  S
C499        O504   1.274       .  A
C499        O502   1.267       .  A
C499       C1289   1.495       .  S
Cd500       O507   2.395       .  S
Cd500       O506   2.444       .  S
Cd500       O505   2.390   1_556  S
Cd500       O501   2.511   1_556  S
Cd500       O504   2.530   1_556  S
Cd500       O502   2.433   1_556  S
C503        O507   1.267       .  A
C503        C509   1.468       .  S
O508        C511   1.265       .  A
O508       Cd513   2.445       .  S
C509        O518   1.261       .  A
C509        O514   1.263       .  A
O510        C516   1.267       .  A
O510       Cd513   2.462       .  S
C511        O519   1.265       .  A
C511        C669   1.474       .  S
C512        O517   1.266       .  A
C512        O515   1.265       .  A
Cd513       O520   2.425       .  S
Cd513       O519   2.450       .  S
Cd513       O518   2.451       .  S
Cd513       O514   2.525       .  S
Cd513       O517   2.543       .  S
Cd513       O515   2.428       .  S
C516        O520   1.262       .  A
C516        C738   1.475       .  S
O521        C524   1.273       .  A
O521       Cd526   2.525       .  S
C522        O531   1.265       .  A
C522        O527   1.275       .  A
C522        C555   1.466       .  S
O523        C529   1.273       .  A
O523       Cd526   2.526       .  S
C524        O532   1.267       .  A
C524        C649   1.486       .  S
C525        O530   1.274       .  A
C525        O528   1.265       .  A
C525        C561   1.465   1_455  S
Cd526       O533   2.451       .  S
Cd526       O532   2.411       .  S
Cd526       O531   2.382       .  S
Cd526       O527   2.501       .  S
Cd526       O530   2.486       .  S
Cd526       O528   2.402       .  S
C529        O533   1.269       .  A
C529        C909   1.496       .  S
O534        C537   1.277       .  A
O534       Cd539   2.515       .  S
C535        O544   1.269       .  A
C535        O540   1.275       .  A
C535        C858   1.493       .  S
O536        C542   1.275       .  A
O536       Cd539   2.469       .  S
C537        O545   1.264       .  A
C537        C568   1.470   1_455  S
C538        O543   1.272       .  A
C538        O541   1.270       .  A
C538        C698   1.488   1_455  S
Cd539       O546   2.404       .  S
Cd539       O545   2.381       .  S
Cd539       O544   2.435       .  S
Cd539       O540   2.517       .  S
Cd539       O543   2.498       .  S
Cd539       O541   2.453       .  S
C542        O546   1.266       .  A
C542        C548   1.464       .  S
O547        C550   1.265       .  A
O547       Cd552   2.438       .  S
C548        O557   1.264       .  A
C548        O553   1.260       .  A
O549        C555   1.265       .  A
O549       Cd552   2.531       .  S
C550        O558   1.265       .  A
C550        C878   1.465       .  S
C551        O556   1.269       .  A
C551        O554   1.264       .  A
C551        C818   1.473       .  S
Cd552       O559   2.422       .  S
Cd552       O558   2.435       .  S
Cd552       O557   2.465       .  S
Cd552       O553   2.486       .  S
Cd552       O556   2.483       .  S
Cd552       O554   2.399       .  S
C555        O559   1.260       .  A
O560        C563   1.268       .  A
O560       Cd565   2.456       .  S
C561        O570   1.265       .  A
C561        O566   1.264       .  A
O562        C568   1.266       .  A
O562       Cd565   2.528       .  S
C563        O571   1.266       .  A
C563        C678   1.471       .  S
C564        O569   1.268       .  A
C564        O567   1.262       .  A
C564        C629   1.480       .  S
Cd565       O572   2.427       .  S
Cd565       O571   2.411       .  S
Cd565       O570   2.444       .  S
Cd565       O566   2.493       .  S
Cd565       O569   2.504       .  S
Cd565       O567   2.419       .  S
C568        O572   1.264       .  A
O573        C576   1.271       .  A
O573       Cd578   2.482       .  S
C574        O583   1.265       .  A
C574        O579   1.274       .  A
C574        C616   1.466       .  S
O575        C581   1.275       .  A
O575       Cd578   2.517       .  S
C576        O584   1.268       .  A
C576       C1258   1.480       .  S
C577        O582   1.273       .  A
C577        O580   1.267       .  A
C577        C658   1.487       .  S
Cd578       O585   2.387       .  S
Cd578       O584   2.453       .  S
Cd578       O583   2.380       .  S
Cd578       O579   2.504       .  S
Cd578       O582   2.509       .  S
Cd578       O580   2.428       .  S
C581        O585   1.263       .  A
C581        C602   1.468       .  S
O586        C589   1.274       .  A
O586       Cd591   2.503       .  S
C587        O596   1.266       .  A
C587        O592   1.276       .  A
C587        C613   1.466       .  S
O588        C594   1.276       .  A
O588       Cd591   2.487       .  S
C589        O597   1.268       .  A
C589       C1169   1.488       .  S
C590        O595   1.274       .  A
C590        O593   1.269       .  A
C590        C778   1.489       .  S
Cd591       O598   2.366       .  S
Cd591       O597   2.439       .  S
Cd591       O596   2.395       .  S
Cd591       O592   2.498       .  S
Cd591       O595   2.503       .  S
Cd591       O593   2.416       .  S
C594        O598   1.264       .  A
C594        C607   1.461       .  S
O599        C602   1.264       .  A
O599       Cd604   2.535       .  S
C600        O609   1.266       .  A
C600        O605   1.267       .  A
C600       C1078   1.478       .  S
O601        C607   1.263       .  A
O601       Cd604   2.507       .  S
C602        O610   1.261       .  A
C603        O608   1.265       .  A
C603        O606   1.264       .  A
C603       C1198   1.477       .  S
Cd604       O611   2.424       .  S
Cd604       O610   2.434       .  S
Cd604       O609   2.454       .  S
Cd604       O605   2.459       .  S
Cd604       O608   2.450       .  S
Cd604       O606   2.469       .  S
C607        O611   1.263       .  A
O612        C615   1.265       .  A
O612       Cd617   2.485       .  S
C613        O622   1.264       .  A
C613        O618   1.265       .  A
O614        C620   1.263       .  A
O614       Cd617   2.420       .  S
C615        O623   1.262       .  A
C615        C638   1.478       .  S
C616        O621   1.267       .  A
C616        O619   1.261       .  A
Cd617       O624   2.478       .  S
Cd617       O623   2.428       .  S
Cd617       O622   2.428       .  S
Cd617       O618   2.503       .  S
Cd617       O621   2.535       .  S
Cd617       O619   2.408       .  S
C620        O624   1.268       .  A
C620        C718   1.477       .  S
C625        C626   1.406       .  A
C625        C630   1.402       .  A
C625        H635   1.083       .  S
C626        C631   1.481       .  S
C626        C627   1.405       .  A
C627        C628   1.392       .  A
C627        F632   1.358       .  S
C628        C629   1.405       .  A
C628        H633   1.083       .  S
C629        C630   1.408       .  A
C630        F634   1.357       .  S
C631        C636   1.405       .  A
C631        C640   1.406       .  A
C636        C637   1.394       .  A
C636        F641   1.357       .  S
C637        C638   1.406       .  A
C637        H642   1.082       .  S
C638        C639   1.407       .  A
C639        C640   1.399       .  A
C639        F643   1.357       .  S
C640        H644   1.083       .  S
C645        C646   1.409       .  A
C645        C650   1.409   1_655  A
C645        H655   1.085       .  S
C646        C651   1.492       .  S
C646        C647   1.406       .  A
C647        C648   1.393       .  A
C647        F652   1.357       .  S
C648        C649   1.403   1_655  A
C648        H653   1.085       .  S
C649        C650   1.411       .  A
C650        F654   1.357       .  S
C651        C656   1.409       .  A
C651        C660   1.404       .  A
C656        C657   1.408       .  A
C656        F661   1.357       .  S
C657        C658   1.408       .  A
C657        H662   1.083       .  S
C658        C659   1.408       .  A
C659        C660   1.394       .  A
C659        F663   1.358       .  S
C660        H664   1.084       .  S
C665        C666   1.401       .  A
C665        C670   1.395       .  A
C665        H675   1.081       .  S
C666        C671   1.470       .  S
C666        C667   1.403       .  A
C667        C668   1.396       .  A
C667        F672   1.358       .  S
C668        C669   1.407       .  A
C668        H673   1.081       .  S
C669        C670   1.407       .  A
C670        F674   1.357       .  S
C671        C676   1.403       .  A
C671        C680   1.401       .  A
C676        C677   1.398       .  A
C676        F681   1.357       .  S
C677        C678   1.406       .  A
C677        H682   1.083       .  S
C678        C679   1.407       .  A
C679        C680   1.392       .  A
C679        F683   1.358       .  S
C680        H684   1.082       .  S
C685        C686   1.408       .  A
C685        C690   1.408       .  A
C685        H695   1.081       .  S
C686        C691   1.495       .  S
C686        C687   1.408       .  A
C687        C688   1.397       .  A
C687        F692   1.358       .  S
C688        C689   1.405       .  A
C688        H693   1.082       .  S
C689        C690   1.411       .  A
C690        F694   1.357       .  S
C691        C696   1.410       .  A
C691        C700   1.407       .  A
C696        C697   1.408       .  A
C696        F701   1.358       .  S
C697        C698   1.409       .  A
C697        H702   1.078       .  S
C698        C699   1.405       .  A
C699        C700   1.399       .  A
C699        F703   1.357       .  S
C700        H704   1.077       .  S
C705        C706   1.405       .  A
C705        C710   1.397       .  A
C705        H715   1.083       .  S
C706        C711   1.478       .  S
C706        C707   1.405       .  A
C707        C708   1.394       .  A
C707        F712   1.358       .  S
C708        C709   1.405       .  A
C708        H713   1.082       .  S
C709        C710   1.406       .  A
C710        F714   1.357       .  S
C711        C716   1.405       .  A
C711        C720   1.405       .  A
C716        C717   1.392       .  A
C716        F721   1.358       .  S
C717        C718   1.405       .  A
C717        H722   1.083       .  S
C718        C719   1.408       .  A
C719        C720   1.399       .  A
C719        F723   1.357       .  S
C720        H724   1.083       .  S
C725        C726   1.401       .  A
C725        C730   1.398       .  A
C725        H735   1.084       .  S
C726        C731   1.469       .  S
C726        C727   1.402       .  A
C727        C728   1.392       .  A
C727        F732   1.358       .  S
C728        C729   1.404       .  A
C728        H733   1.082       .  S
C729        C730   1.410       .  A
C730        F734   1.357       .  S
C731        C736   1.403       .  A
C731        C740   1.400       .  A
C736        C737   1.396       .  A
C736        F741   1.357       .  S
C737        C738   1.405       .  A
C737        H742   1.083       .  S
C738        C739   1.410       .  A
C739        C740   1.393       .  A
C739        F743   1.358       .  S
C740        H744   1.085       .  S
C745        C746   1.407       .  A
C745        C750   1.398       .  A
C745        H755   1.077       .  S
C746        C751   1.497       .  S
C746        C747   1.411       .  A
C747        C748   1.407       .  A
C747        F752   1.357       .  S
C748        C749   1.406       .  A
C748        H753   1.078       .  S
C749        C750   1.405       .  A
C750        F754   1.358       .  S
C751        C756   1.409       .  A
C751        C760   1.408       .  A
C756        C757   1.399       .  A
C756        F761   1.358       .  S
C757        C758   1.407       .  A
C757        H762   1.082       .  S
C758        C759   1.410       .  A
C759        C760   1.406       .  A
C759        F763   1.357       .  S
C760        H764   1.081       .  S
C765        C766   1.407       .  A
C765        C770   1.404       .  A
C765        H775   1.085       .  S
C766        C771   1.491       .  S
C766        C767   1.409       .  A
C767        C768   1.396       .  A
C767        F772   1.358       .  S
C768        C769   1.403       .  A
C768        H773   1.084       .  S
C769        C770   1.407       .  A
C770        F774   1.357       .  S
C771        C776   1.410       .  A
C771        C780   1.403       .  A
C776        C777   1.408       .  A
C776        F781   1.357       .  S
C777        C778   1.409       .  A
C777        H782   1.083       .  S
C778        C779   1.409       .  A
C779        C780   1.393       .  A
C779        F783   1.357       .  S
C780        H784   1.084       .  S
C785        C786   1.407       .  A
C785        C790   1.399       .  A
C785        H795   1.081       .  S
C786        C791   1.495       .  S
C786        C787   1.409       .  A
C787        C788   1.405       .  A
C787        F792   1.357       .  S
C788        C789   1.406       .  A
C788        H793   1.080       .  S
C789        C790   1.408       .  A
C790        F794   1.358       .  S
C791        C796   1.407       .  A
C791        C800   1.409       .  A
C796        C797   1.396       .  A
C796        F801   1.358       .  S
C797        C798   1.406       .  A
C797        H802   1.085       .  S
C798        C799   1.411       .  A
C799        C800   1.409       .  A
C799        F803   1.357       .  S
C800        H804   1.083       .  S
C805        C806   1.401       .  A
C805        C810   1.394       .  A
C805        H815   1.083       .  S
C806        C811   1.470       .  S
C806        C807   1.404       .  A
C807        C808   1.396       .  A
C807        F812   1.358       .  S
C808        C809   1.406       .  A
C808        H813   1.081       .  S
C809        C810   1.407       .  A
C810        F814   1.357       .  S
C811        C816   1.402       .  A
C811        C820   1.403       .  A
C816        C817   1.391       .  A
C816        F821   1.358       .  S
C817        C818   1.405       .  A
C817        H822   1.082       .  S
C818        C819   1.407       .  A
C819        C820   1.399       .  A
C819        F823   1.357       .  S
C820        H824   1.082       .  S
C825        C826   1.403       .  A
C825        C830   1.396       .  A
C825        H835   1.081       .  S
C826        C831   1.478       .  S
C826        C827   1.405       .  A
C827        C828   1.398       .  A
C827        F832   1.357       .  S
C828        C829   1.406       .  A
C828        H833   1.081       .  S
C829        C830   1.408       .  A
C830        F834   1.358       .  S
C831        C836   1.405       .  A
C831        C840   1.405       .  A
C836        C837   1.393       .  A
C836        F841   1.358       .  S
C837        C838   1.404       .  A
C837        H842   1.080       .  S
C838        C839   1.409       .  A
C839        C840   1.402       .  A
C839        F843   1.357       .  S
C840        H844   1.080       .  S
C845        C846   1.406       .  A
C845        C850   1.397       .  A
C845        H855   1.084       .  S
C846        C851   1.501       .  S
C846        C847   1.413       .  A
C847        C848   1.409       .  A
C847        F852   1.357       .  S
C848        C849   1.407       .  A
C848        H853   1.084       .  S
C849        C850   1.410       .  A
C850        F854   1.357       .  S
C851        C856   1.411       .  A
C851        C860   1.410       .  A
C856        C857   1.399       .  A
C856        F861   1.357       .  S
C857        C858   1.405       .  A
C857        H862   1.084       .  S
C858        C859   1.410       .  A
C859        C860   1.408       .  A
C859        F863   1.357       .  S
C860        H864   1.084       .  S
C865        C866   1.399       .  A
C865        C870   1.391       .  A
C865        H875   1.083       .  S
C866        C871   1.466       .  S
C866        C867   1.402       .  A
C867        C868   1.399       .  A
C867        F872   1.357       .  S
C868        C869   1.406       .  A
C868        H873   1.083       .  S
C869        C870   1.410       .  A
C870        F874   1.358       .  S
C871        C876   1.402       .  A
C871        C880   1.403       .  A
C876        C877   1.395       .  A
C876        F881   1.357       .  S
C877        C878   1.403       .  A
C877        H882   1.082       .  S
C878        C879   1.405       .  A
C879        C880   1.394       .  A
C879        F883   1.358       .  S
C880        H884   1.082       .  S
C885        C886   1.402       .  A
C885        C890   1.399       .  A
C885        H895   1.083       .  S
C886        C891   1.476       .  S
C886        C887   1.405       .  A
C887        C888   1.393       .  A
C887        F892   1.358       .  S
C888        C889   1.405       .  A
C888        H893   1.083       .  S
C889        C890   1.410       .  A
C890        F894   1.357       .  S
C891        C896   1.404       .  A
C891        C900   1.402       .  A
C896        C897   1.394       .  A
C896        F901   1.358       .  S
C897        C898   1.405       .  A
C897        H902   1.083       .  S
C898        C899   1.409       .  A
C899        C900   1.398       .  A
C899        F903   1.357       .  S
C900        H904   1.086       .  S
C905        C906   1.410       .  A
C905        C910   1.411       .  A
C905        H915   1.082       .  S
C906        C911   1.500       .  S
C906        C907   1.408       .  A
C907        C908   1.399       .  A
C907        F912   1.357       .  S
C908        C909   1.406       .  A
C908        H913   1.083       .  S
C909        C910   1.412       .  A
C910        F914   1.357       .  S
C911        C916   1.410       .  A
C911        C920   1.408       .  A
C916        C917   1.401       .  A
C916        F921   1.358       .  S
C917        C918   1.406       .  A
C917        H922   1.081       .  S
C918        C919   1.409       .  A
C919        C920   1.408       .  A
C919        F923   1.357       .  S
C920        H924   1.081       .  S
C925        C926   1.408       .  A
C925        C930   1.408       .  A
C925        H935   1.084       .  S
C926        C931   1.501       .  S
C926        C927   1.411       .  A
C927        C928   1.403       .  A
C927        F932   1.357       .  S
C928        C929   1.404       .  A
C928        H933   1.084       .  S
C929        C930   1.409       .  A
C930        F934   1.357       .  S
C931        C936   1.407       .  A
C931        C940   1.411       .  A
C936        C937   1.397       .  A
C936        F941   1.357       .  S
C937        C938   1.407       .  A
C937        H942   1.083       .  S
C938        C939   1.411       .  A
C939        C940   1.412       .  A
C939        F943   1.357       .  S
C940        H944   1.083       .  S
C945        C946   1.404       .  A
C945        C950   1.399       .  A
C945        H955   1.081       .  S
C946        C951   1.476       .  S
C946        C947   1.404       .  A
C947        C948   1.392       .  A
C947        F952   1.357       .  S
C948        C949   1.404       .  A
C948        H953   1.080       .  S
C949        C950   1.408       .  A
C950        F954   1.358       .  S
C951        C956   1.405       .  A
C951        C960   1.401       .  A
C956        C957   1.400       .  A
C956        F961   1.358       .  S
C957        C958   1.406       .  A
C957        H962   1.081       .  S
C958        C959   1.409       .  A
C959        C960   1.395       .  A
C959        F963   1.357       .  S
C960        H964   1.082       .  S
C965        C966   1.405       .  A
C965        C970   1.393       .  A
C965        H975   1.084       .  S
C966        C971   1.485       .  S
C966        C967   1.407       .  A
C967        C968   1.401       .  A
C967        F972   1.357       .  S
C968        C969   1.407       .  A
C968        H973   1.084       .  S
C969        C970   1.407       .  A
C970        F974   1.358       .  S
C971        C976   1.406       .  A
C971        C980   1.406       .  A
C976        C977   1.397       .  A
C976        F981   1.358       .  S
C977        C978   1.405       .  A
C977        H982   1.083       .  S
C978        C979   1.409       .  A
C979        C980   1.401       .  A
C979        F983   1.357       .  S
C980        H984   1.082       .  S
C985        C986   1.406       .  A
C985        C990   1.405       .  A
C985        H995   1.080       .  S
C986        C991   1.492       .  S
C986        C987   1.408       .  A
C987        C988   1.401       .  A
C987        F992   1.358       .  S
C988        C989   1.408       .  A
C988        H993   1.080       .  S
C989        C990   1.409       .  A
C990        F994   1.356   1_556  S
C991        C996   1.409   1_565  A
C991       C1000   1.403       .  A
C996        C997   1.407       .  A
C996       F1001   1.357       .  S
C997        C998   1.408       .  A
C997       H1002   1.081       .  S
C998        C999   1.411   1_545  A
C999       C1000   1.396       .  A
C999       F1003   1.358       .  S
C1000      H1004   1.081       .  S
C1005      C1006   1.408       .  A
C1005      C1010   1.406       .  A
C1005      H1015   1.080       .  S
C1006      C1011   1.493       .  S
C1006      C1007   1.408       .  A
C1007      C1008   1.396       .  A
C1007      F1012   1.358       .  S
C1008      C1009   1.405       .  A
C1008      H1013   1.081       .  S
C1009      C1010   1.410       .  A
C1010      F1014   1.357   1_556  S
C1011      C1016   1.410       .  A
C1011      C1020   1.404       .  A
C1016      C1017   1.408       .  A
C1016      F1021   1.357       .  S
C1017      C1018   1.407       .  A
C1017      H1022   1.082       .  S
C1018      C1019   1.409       .  A
C1019      C1020   1.396       .  A
C1019      F1023   1.358       .  S
C1020      H1024   1.081       .  S
C1025      C1026   1.403       .  A
C1025      C1030   1.395       .  A
C1025      H1035   1.083       .  S
C1026      C1031   1.475       .  S
C1026      C1027   1.404       .  A
C1027      C1028   1.395       .  A
C1027      F1032   1.357       .  S
C1028      C1029   1.404       .  A
C1028      H1033   1.084       .  S
C1029      C1030   1.409       .  A
C1030      F1034   1.358       .  S
C1031      C1036   1.404       .  A
C1031      C1040   1.403       .  A
C1036      C1037   1.397       .  A
C1036      F1041   1.357       .  S
C1037      C1038   1.406       .  A
C1037      H1042   1.084       .  S
C1038      C1039   1.407       .  A
C1039      C1040   1.391       .  A
C1039      F1043   1.358       .  S
C1040      H1044   1.084       .  S
C1045      C1046   1.406       .  A
C1045      C1050   1.406       .  A
C1045      H1055   1.083       .  S
C1046      C1051   1.492       .  S
C1046      C1047   1.408       .  A
C1047      C1048   1.401       .  A
C1047      F1052   1.357       .  S
C1048      C1049   1.404       .  A
C1048      H1053   1.084       .  S
C1049      C1050   1.409       .  A
C1050      F1054   1.357       .  S
C1051      C1056   1.406       .  A
C1051      C1060   1.407       .  A
C1056      C1057   1.397       .  A
C1056      F1061   1.357       .  S
C1057      C1058   1.407       .  A
C1057      H1062   1.083       .  S
C1058      C1059   1.411       .  A
C1059      C1060   1.408       .  A
C1059      F1063   1.357       .  S
C1060      H1064   1.083       .  S
C1065      C1066   1.404       .  A
C1065      C1070   1.401       .  A
C1065      H1075   1.080       .  S
C1066      C1071   1.481       .  S
C1066      C1067   1.406       .  A
C1067      C1068   1.395       .  A
C1067      F1072   1.358       .  S
C1068      C1069   1.405       .  A
C1068      H1073   1.081       .  S
C1069      C1070   1.409       .  A
C1070      F1074   1.357       .  S
C1071      C1076   1.406       .  A
C1071      C1080   1.404       .  A
C1076      C1077   1.399       .  A
C1076      F1081   1.357       .  S
C1077      C1078   1.405       .  A
C1077      H1082   1.082       .  S
C1078      C1079   1.408       .  A
C1079      C1080   1.398       .  A
C1079      F1083   1.358       .  S
C1080      H1084   1.080       .  S
C1085      C1086   1.406       .  A
C1085      C1090   1.404       .  A
C1085      H1095   1.080       .  S
C1086      C1091   1.474       .  S
C1086      C1087   1.402       .  A
C1087      C1088   1.387       .  A
C1087      F1092   1.358       .  S
C1088      C1089   1.403       .  A
C1088      H1093   1.082       .  S
C1089      C1090   1.408       .  A
C1090      F1094   1.357       .  S
C1091      C1096   1.403       .  A
C1091      C1100   1.404       .  A
C1096      C1097   1.396       .  A
C1096      F1101   1.358       .  S
C1097      C1098   1.406       .  A
C1097      H1102   1.081       .  S
C1098      C1099   1.407       .  A
C1099      C1100   1.395       .  A
C1099      F1103   1.358       .  S
C1100      H1104   1.081       .  S
C1105      C1106   1.404       .  A
C1105      C1110   1.396       .  A
C1105      H1115   1.085       .  S
C1106      C1111   1.481       .  S
C1106      C1107   1.407       .  A
C1107      C1108   1.396       .  A
C1107      F1112   1.358       .  S
C1108      C1109   1.406       .  A
C1108      H1113   1.083       .  S
C1109      C1110   1.408       .  A
C1110      F1114   1.357       .  S
C1111      C1116   1.407       .  A
C1111      C1120   1.403       .  A
C1116      C1117   1.399       .  A
C1116      F1121   1.357       .  S
C1117      C1118   1.406       .  A
C1117      H1122   1.085       .  S
C1118      C1119   1.408       .  A
C1119      C1120   1.393       .  A
C1119      F1123   1.358       .  S
C1120      H1124   1.083       .  S
C1125      C1126   1.410       .  A
C1125      C1130   1.408       .  A
C1125      H1135   1.083       .  S
C1126      C1131   1.503       .  S
C1126      C1127   1.411       .  A
C1127      C1128   1.400       .  A
C1127      F1132   1.358       .  S
C1128      C1129   1.407       .  A
C1128      H1133   1.084       .  S
C1129      C1130   1.410       .  A
C1130      F1134   1.357   1_655  S
C1131      C1136   1.412       .  A
C1131      C1140   1.408       .  A
C1136      C1137   1.407   1_565  A
C1136      F1141   1.357       .  S
C1137      C1138   1.407       .  A
C1137      H1142   1.083       .  S
C1138      C1139   1.408       .  A
C1139      C1140   1.401   1_545  A
C1139      F1143   1.358       .  S
C1140      H1144   1.083       .  S
C1145      C1146   1.404       .  A
C1145      C1150   1.395       .  A
C1145      H1155   1.082       .  S
C1146      C1151   1.491       .  S
C1146      C1147   1.410       .  A
C1147      C1148   1.408       .  A
C1147      F1152   1.357       .  S
C1148      C1149   1.407       .  A
C1148      H1153   1.081       .  S
C1149      C1150   1.404       .  A
C1150      F1154   1.358       .  S
C1151      C1156   1.406       .  A
C1151      C1160   1.407       .  A
C1156      C1157   1.396       .  A
C1156      F1161   1.358       .  S
C1157      C1158   1.407       .  A
C1157      H1162   1.082       .  S
C1158      C1159   1.411       .  A
C1159      C1160   1.410       .  A
C1159      F1163   1.356       .  S
C1160      H1164   1.081       .  S
C1165      C1166   1.409       .  A
C1165      C1170   1.408       .  A
C1165      H1175   1.080       .  S
C1166      C1171   1.498       .  S
C1166      C1167   1.409       .  A
C1167      C1168   1.400       .  A
C1167      F1172   1.357       .  S
C1168      C1169   1.405       .  A
C1168      H1173   1.080       .  S
C1169      C1170   1.409       .  A
C1170      F1174   1.357       .  S
C1171      C1176   1.409       .  A
C1171      C1180   1.408       .  A
C1176      C1177   1.400       .  A
C1176      F1181   1.358       .  S
C1177      C1178   1.406       .  A
C1177      H1182   1.084       .  S
C1178      C1179   1.410       .  A
C1179      C1180   1.408       .  A
C1179      F1183   1.357       .  S
C1180      H1184   1.084       .  S
C1185      C1186   1.404       .  A
C1185      C1190   1.402       .  A
C1185      H1195   1.080       .  S
C1186      C1191   1.475       .  S
C1186      C1187   1.404       .  A
C1187      C1188   1.390       .  A
C1187      F1192   1.358       .  S
C1188      C1189   1.403       .  A
C1188      H1193   1.079       .  S
C1189      C1190   1.410       .  A
C1190      F1194   1.357       .  S
C1191      C1196   1.403       .  A
C1191      C1200   1.403       .  A
C1196      C1197   1.393       .  A
C1196      F1201   1.357       .  S
C1197      C1198   1.404       .  A
C1197      H1202   1.082       .  S
C1198      C1199   1.410       .  A
C1199      C1200   1.400       .  A
C1199      F1203   1.358       .  S
C1200      H1204   1.081       .  S
C1205      C1206   1.403       .  A
C1205      C1210   1.397       .  A
C1205      H1215   1.080       .  S
C1206      C1211   1.475       .  S
C1206      C1207   1.403       .  A
C1207      C1208   1.397       .  A
C1207      F1212   1.358       .  S
C1208      C1209   1.408       .  A
C1208      H1213   1.080       .  S
C1209      C1210   1.408       .  A
C1210      F1214   1.357       .  S
C1211      C1216   1.402       .  A
C1211      C1220   1.405       .  A
C1216      C1217   1.391       .  A
C1216      F1221   1.358       .  S
C1217      C1218   1.404       .  A
C1217      H1222   1.081       .  S
C1218      C1219   1.410       .  A
C1219      C1220   1.403       .  A
C1219      F1223   1.357       .  S
C1220      H1224   1.080       .  S
C1225      C1226   1.402       .  A
C1225      C1230   1.396       .  A
C1225      H1235   1.080       .  S
C1226      C1231   1.474       .  S
C1226      C1227   1.405       .  A
C1227      C1228   1.395       .  A
C1227      F1232   1.358       .  S
C1228      C1229   1.406       .  A
C1228      H1233   1.079       .  S
C1229      C1230   1.408       .  A
C1230      F1234   1.357       .  S
C1231      C1236   1.405       .  A
C1231      C1240   1.404       .  A
C1236      C1237   1.392       .  A
C1236      F1241   1.358       .  S
C1237      C1238   1.403       .  A
C1237      H1242   1.080       .  S
C1238      C1239   1.406       .  A
C1239      C1240   1.398       .  A
C1239      F1243   1.357       .  S
C1240      H1244   1.081       .  S
C1245      C1246   1.404       .  A
C1245      C1250   1.396       .  A
C1245      H1255   1.083       .  S
C1246      C1251   1.497       .  S
C1246      C1247   1.412       .  A
C1247      C1248   1.409       .  A
C1247      F1252   1.357       .  S
C1248      C1249   1.409       .  A
C1248      H1253   1.083       .  S
C1249      C1250   1.410       .  A
C1250      F1254   1.357       .  S
C1251      C1256   1.410       .  A
C1251      C1260   1.410       .  A
C1256      C1257   1.403       .  A
C1256      F1261   1.357       .  S
C1257      C1258   1.404       .  A
C1257      H1262   1.083       .  S
C1258      C1259   1.404       .  A
C1259      C1260   1.400       .  A
C1259      F1263   1.358       .  S
C1260      H1264   1.082       .  S
C1265      C1266   1.407       .  A
C1265      C1270   1.408       .  A
C1265      H1275   1.082       .  S
C1266      C1271   1.494       .  S
C1266      C1267   1.407       .  A
C1267      C1268   1.401       .  A
C1267      F1272   1.358       .  S
C1268      C1269   1.406       .  A
C1268      H1273   1.081       .  S
C1269      C1270   1.409       .  A
C1270      F1274   1.357       .  S
C1271      C1276   1.408       .  A
C1271      C1280   1.404       .  A
C1276      C1277   1.409   1_655  A
C1276      F1281   1.357   1_655  S
C1277      C1278   1.409       .  A
C1277      H1282   1.083       .  S
C1278      C1279   1.412   1_455  A
C1279      C1280   1.399       .  A
C1279      F1283   1.358       .  S
C1280      H1284   1.084       .  S
C1285      C1286   1.404       .  A
C1285      C1290   1.398       .  A
C1285      H1295   1.083       .  S
C1286      C1291   1.496       .  S
C1286      C1287   1.410       .  A
C1287      C1288   1.409       .  A
C1287      F1292   1.357       .  S
C1288      C1289   1.408       .  A
C1288      H1293   1.082       .  S
C1289      C1290   1.411       .  A
C1290      F1294   1.357       .  S
C1291      C1296   1.409       .  A
C1291      C1300   1.408       .  A
C1296      C1297   1.398       .  A
C1296      F1301   1.357       .  S
C1297      C1298   1.404       .  A
C1297      H1302   1.083       .  S
C1298      C1299   1.409       .  A
C1299      C1300   1.405       .  A
C1299      F1303   1.357       .  S
C1300      H1304   1.084       .  S
C1305      C1306   1.403       .  A
C1305      C1310   1.392       .  A
C1305      H1315   1.082       .  S
C1306      C1311   1.478       .  S
C1306      C1307   1.405       .  A
C1307      C1308   1.400       .  A
C1307      F1312   1.357       .  S
C1308      C1309   1.407       .  A
C1308      H1313   1.082       .  S
C1309      C1310   1.407       .  A
C1310      F1314   1.358       .  S
C1311      C1316   1.406       .  A
C1311      C1320   1.404       .  A
C1316      C1317   1.397       .  A
C1316      F1321   1.358       .  S
C1317      C1318   1.405       .  A
C1317      H1322   1.082       .  S
C1318      C1319   1.406       .  A
C1319      C1320   1.395       .  A
C1319      F1323   1.357       .  S
C1320      H1324   1.081       .  S
C1325      C1326   1.399       .  A
C1325      C1330   1.399       .  A
C1325      H1335   1.080       .  S
C1326      C1331   1.464       .  S
C1326      C1327   1.401       .  A
C1327      C1328   1.392       .  A
C1327      F1332   1.358       .  S
C1328      C1329   1.406       .  A
C1328      H1333   1.079       .  S
C1329      C1330   1.410       .  A
C1330      F1334   1.357       .  S
C1331      C1336   1.401       .  A
C1331      C1340   1.400       .  A
C1336      C1337   1.394       .  A
C1336      F1341   1.357       .  S
C1337      C1338   1.405       .  A
C1337      H1342   1.079       .  S
C1338      C1339   1.408       .  A
C1339      C1340   1.395       .  A
C1339      F1343   1.358       .  S
C1340      H1344   1.079       .  S
C1345      C1346   1.406       .  A
C1345      C1350   1.402       .  A
C1345      H1355   1.081       .  S
C1346      C1351   1.480       .  S
C1346      C1347   1.405       .  A
C1347      C1348   1.392       .  A
C1347      F1352   1.358       .  S
C1348      C1349   1.404       .  A
C1348      H1353   1.080       .  S
C1349      C1350   1.409       .  A
C1350      F1354   1.357       .  S
C1351      C1356   1.406       .  A
C1351      C1360   1.403       .  A
C1356      C1357   1.397       .  A
C1356      F1361   1.358       .  S
C1357      C1358   1.405       .  A
C1357      H1362   1.081       .  S
C1358      C1359   1.408       .  A
C1359      C1360   1.397       .  A
C1359      F1363   1.358       .  S
C1360      H1364   1.080       .  S
C1365      C1366   1.409       .  A
C1365      C1370   1.408       .  A
C1365      H1375   1.081       .  S
C1366      C1371   1.497       .  S
C1366      C1367   1.408       .  A
C1367      C1368   1.397       .  A
C1367      F1372   1.358       .  S
C1368      C1369   1.407       .  A
C1368      H1373   1.081       .  S
C1369      C1370   1.410       .  A
C1370      F1374   1.357       .  S
C1371      C1376   1.410       .  A
C1371      C1380   1.407       .  A
C1376      C1377   1.407       .  A
C1376      F1381   1.357       .  S
C1377      C1378   1.407       .  A
C1377      H1382   1.080       .  S
C1378      C1379   1.407       .  A
C1379      C1380   1.399       .  A
C1379      F1383   1.358       .  S
C1380      H1384   1.080       .  S
C1385      C1386   1.409       .  A
C1385      C1390   1.412       .  A
C1385      H1395   1.083       .  S
C1386      C1391   1.496       .  S
C1386      C1387   1.406       .  A
C1387      C1388   1.395       .  A
C1387      F1392   1.358       .  S
C1388      C1389   1.405       .  A
C1388      H1393   1.084       .  S
C1389      C1390   1.412       .  A
C1390      F1394   1.357       .  S
C1391      C1396   1.410       .  A
C1391      C1400   1.404       .  A
C1396      C1397   1.411       .  A
C1396      F1401   1.357       .  S
C1397      C1398   1.411       .  A
C1397      H1402   1.082       .  S
C1398      C1399   1.408       .  A
C1399      C1400   1.397       .  A
C1399      F1403   1.357       .  S
C1400      H1404   1.083       .  S
C1405      C1406   1.408       .  A
C1405      C1410   1.401       .  A
C1405      H1415   1.084       .  S
C1406      C1411   1.499       .  S
C1406      C1407   1.411       .  A
C1407      C1408   1.407       .  A
C1407      F1412   1.357       .  S
C1408      C1409   1.407       .  A
C1408      H1413   1.084       .  S
C1409      C1410   1.406       .  A
C1410      F1414   1.357       .  S
C1411      C1416   1.412       .  A
C1411      C1420   1.404       .  A
C1416      C1417   1.409   1_565  A
C1416      F1421   1.357       .  S
C1417      C1418   1.408       .  A
C1417      H1422   1.083       .  S
C1418      C1419   1.411   1_545  A
C1419      C1420   1.397       .  A
C1419      F1423   1.357       .  S
C1420      H1424   1.083       .  S
C1425      C1426   1.404       .  A
C1425      C1430   1.396       .  A
C1425      H1435   1.079       .  S
C1426      C1431   1.480       .  S
C1426      C1427   1.405       .  A
C1427      C1428   1.398       .  A
C1427      F1432   1.358       .  S
C1428      C1429   1.406       .  A
C1428      H1433   1.080       .  S
C1429      C1430   1.409       .  A
C1430      F1434   1.358       .  S
C1431      C1436   1.405       .  A
C1431      C1440   1.405       .  A
C1436      C1437   1.397       .  A
C1436      F1441   1.357       .  S
C1437      C1438   1.405       .  A
C1437      H1442   1.081       .  S
C1438      C1439   1.406       .  A
C1439      C1440   1.397       .  A
C1439      F1443   1.358       .  S
C1440      H1444   1.081       .  S
C1445      C1446   1.403       .  A
C1445      C1450   1.396       .  A
C1445      H1455   1.082       .  S
C1446      C1451   1.476       .  S
C1446      C1447   1.404       .  A
C1447      C1448   1.397       .  A
C1447      F1452   1.358       .  S
C1448      C1449   1.407       .  A
C1448      H1453   1.080       .  S
C1449      C1450   1.408       .  A
C1450      F1454   1.357       .  S
C1451      C1456   1.406       .  A
C1451      C1460   1.403       .  A
C1456      C1457   1.394       .  A
C1456      F1461   1.358       .  S
C1457      C1458   1.404       .  A
C1457      H1462   1.079       .  S
C1458      C1459   1.408       .  A
C1459      C1460   1.398       .  A
C1459      F1463   1.357       .  S
C1460      H1464   1.079       .  S
C1465      C1466   1.404       .  A
C1465      C1470   1.399       .  A
C1465      H1475   1.078       .  S
C1466      C1471   1.478       .  S
C1466      C1467   1.406       .  A
C1467      C1468   1.396       .  A
C1467      F1472   1.358       .  S
C1468      C1469   1.404       .  A
C1468      H1473   1.077       .  S
C1469      C1470   1.407       .  A
C1470      F1474   1.357       .  S
C1471      C1476   1.405       .  A
C1471      C1480   1.403       .  A
C1476      C1477   1.399       .  A
C1476      F1481   1.358       .  S
C1477      C1478   1.407       .  A
C1477      H1482   1.080       .  S
C1478      C1479   1.408       .  A
C1479      C1480   1.395       .  A
C1479      F1483   1.357       .  S
C1480      H1484   1.079       .  S
C1485      C1486   1.400       .  A
C1485      C1490   1.397       .  A
C1485      H1495   1.081       .  S
C1486      C1491   1.472       .  S
C1486      C1487   1.405       .  A
C1487      C1488   1.397       .  A
C1487      F1492   1.359       .  S
C1488      C1489   1.406       .  A
C1488      H1493   1.079       .  S
C1489      C1490   1.408       .  A
C1490      F1494   1.357       .  S
C1491      C1496   1.404       .  A
C1491      C1500   1.401       .  A
C1496      C1497   1.395       .  A
C1496      F1501   1.358       .  S
C1497      C1498   1.405       .  A
C1497      H1502   1.080       .  S
C1498      C1499   1.409       .  A
C1499      C1500   1.396       .  A
C1499      F1503   1.358       .  S
C1500      H1504   1.080       .  S
C1505      C1506   1.405       .  A
C1505      C1510   1.395       .  A
C1505      H1515   1.080       .  S
C1506      C1511   1.491       .  S
C1506      C1507   1.409       .  A
C1507      C1508   1.406       .  A
C1507      F1512   1.357       .  S
C1508      C1509   1.407       .  A
C1508      H1513   1.079       .  S
C1509      C1510   1.408       .  A
C1510      F1514   1.358       .  S
C1511      C1516   1.408       .  A
C1511      C1520   1.408       .  A
C1516      C1517   1.397       .  A
C1516      F1521   1.358       .  S
C1517      C1518   1.404       .  A
C1517      H1522   1.077       .  S
C1518      C1519   1.408       .  A
C1519      C1520   1.405       .  A
C1519      F1523   1.357       .  S
C1520      H1524   1.077       .  S
C1525      C1526   1.406       .  A
C1525      C1530   1.396       .  A
C1525      H1535   1.079       .  S
C1526      C1531   1.495       .  S
C1526      C1527   1.410       .  A
C1527      C1528   1.405       .  A
C1527      F1532   1.357       .  S
C1528      C1529   1.407       .  A
C1528      H1533   1.081       .  S
C1529      C1530   1.410       .  A
C1530      F1534   1.358       .  S
C1531      C1536   1.410       .  A
C1531      C1540   1.409       .  A
C1536      C1537   1.396       .  A
C1536      F1541   1.358       .  S
C1537      C1538   1.403       .  A
C1537      H1542   1.077       .  S
C1538      C1539   1.406       .  A
C1539      C1540   1.404       .  A
C1539      F1543   1.358       .  S
C1540      H1544   1.075       .  S
C1545      C1546   1.410       .  A
C1545      C1550   1.408       .  A
C1545      H1555   1.083       .  S
C1546      C1551   1.496       .  S
C1546      C1547   1.408       .  A
C1547      C1548   1.397       .  A
C1547      F1552   1.357       .  S
C1548      C1549   1.405       .  A
C1548      H1553   1.082       .  S
C1549      C1550   1.410       .  A
C1550      F1554   1.357       .  S
C1551      C1556   1.410       .  A
C1551      C1560   1.407       .  A
C1556      C1557   1.400       .  A
C1556      F1561   1.358       .  S
C1557      C1558   1.406       .  A
C1557      H1562   1.083       .  S
C1558      C1559   1.408       .  A
C1559      C1560   1.405       .  A
C1559      F1563   1.357       .  S
C1560      H1564   1.083       .  S
C1565      C1566   1.405       .  A
C1565      C1570   1.398       .  A
C1565      H1575   1.083       .  S
C1566      C1571   1.491       .  S
C1566      C1567   1.408       .  A
C1567      C1568   1.407       .  A
C1567      F1572   1.357       .  S
C1568      C1569   1.407       .  A
C1568      H1573   1.083       .  S
C1569      C1570   1.408       .  A
C1570      F1574   1.358       .  S
C1571      C1576   1.405       .  A
C1571      C1580   1.409       .  A
C1576      C1577   1.394       .  A
C1576      F1581   1.358       .  S
C1577      C1578   1.406   1_565  A
C1577      H1582   1.083       .  S
C1578      C1579   1.410       .  A
C1579      C1580   1.409   1_545  A
C1579      F1583   1.357       .  S
C1580      H1584   1.082       .  S
