geometry optimzed in LAMMPS
_audit_creation_date              2020-11-30 
_audit_creation_method            'lammps2cif' 
_symmetry_space_group_name_H-M    'P1' 
_symmetry_Int_Tables_number       1 
_symmetry_cell_setting            triclinic 
loop_ 
_symmetry_equiv_pos_as_xyz 
  x,y,z 
_cell_length_a                    26.53644822 
_cell_length_b                    30.71140606573903 
_cell_length_c                    35.89610543908516 
_cell_angle_alpha                 82.25358306489076 
_cell_angle_beta                  96.76182592455777 
_cell_angle_gamma                 66.54348566161954 
loop_ 
_atom_site_label 
_atom_site_type_symbol 
_atom_site_fract_x 
_atom_site_fract_y 
_atom_site_fract_z 
_atom_site_charge 
O1          O  0.15613062  0.19442539  0.01783003    -0.81600
O2          O  0.90044219  0.22994009  0.00365468    -0.66300
O3          O  0.05240661  0.21562485  0.49069590    -1.12900
C4          C  0.99494424  0.37376095  0.50720736     1.05300
O5          O  0.85867283  0.30600895  0.49401290    -0.79500
O6          O  0.92510151  0.31704468  0.44463559    -0.67100
Ni7        Ni  0.10600838  0.16293286  0.01750343     1.34900
C8          C  0.97239625  0.30601996  0.43474851     0.84000
O9          O  0.98291141  0.16660207  0.97880507    -0.80100
O10         O  0.06533522  0.12236268  0.01743245    -0.90300
C11         C  0.86307886  0.26277800  0.50169837     0.83600
O12         O  0.08508920  0.18390364  0.06332778    -0.68500
O13         O  0.94966740  0.37716554  0.48781758    -0.87800
C14         C  0.03642629  0.19444420  0.07065050     0.84400
C15         C  0.02103420  0.12602942  0.99627700     1.06000
H16         H  0.95991204  0.28218952  0.04017652     0.37800
O17         O  0.96218965  0.28413928  0.01350915    -1.10500
O18         O  0.01297419  0.30872876  0.45551771    -0.67100
Ni19       Ni  0.04388492  0.27446164  0.50773096     1.26300
O20         O  0.99929844  0.18985607  0.04799615    -0.67400
O21         O  0.03380447  0.33330656  0.52420043    -0.79700
C22         C  0.15249990  0.23699615  0.00685981     0.83800
O23         O  0.11537638  0.26864330  0.49857170    -0.66800
Ni24       Ni  0.90897675  0.33708745  0.49120935     1.27400
Ni25       Ni  0.97170610  0.22507111  0.99602116     1.26100
H26         H  0.05455921  0.21770102  0.46393331     0.38300
O27         O  0.14025038  0.20141450  0.25784338    -0.81600
O28         O  0.88576819  0.23236602  0.25171472    -0.66300
O29         O  0.02770780  0.22544668  0.23393006    -1.12900
C30         C  0.96397094  0.38459384  0.25078436     1.05300
O31         O  0.83402211  0.31156010  0.22970306    -0.79500
O32         O  0.90354431  0.32423474  0.18414605    -0.67100
Ni33       Ni  0.09237870  0.16836574  0.26056936     1.34900
C34         C  0.95195929  0.31455921  0.17663366     0.84000
O35         O  0.97014799  0.16819441  0.22746655    -0.80100
O36         O  0.05446589  0.12618325  0.26404133    -0.90300
C37         C  0.83868755  0.26886431  0.24146602     0.83600
O38         O  0.07477371  0.18858058  0.30675916    -0.68500
O39         O  0.92042765  0.38701120  0.22962284    -0.87800
C40         C  0.02732903  0.19927482  0.31629878     0.84400
C41         C  0.01033108  0.12825674  0.24416695     1.06000
H42         H  0.94315381  0.28669309  0.28559939     0.37800
O43         O  0.94568075  0.28831416  0.25891015    -1.10500
O44         O  0.98870112  0.31992766  0.19908119    -0.67100
Ni45       Ni  0.01693554  0.28512510  0.25116711     1.26300
O46         O  0.98752252  0.19539078  0.29560265    -0.67400
O47         O  0.00356056  0.34444686  0.26792309    -0.79700
C48         C  0.13499340  0.24477164  0.24936707     0.83800
O49         O  0.08822725  0.28132525  0.24356725    -0.66800
Ni50       Ni  0.88211803  0.34476862  0.22993583     1.27400
Ni51       Ni  0.95703122  0.22817805  0.24299970     1.26100
H52         H  0.02920338  0.22762032  0.20715061     0.38300
O53         O  0.66117933  0.19069531  0.02198789    -0.81600
O54         O  0.40449339  0.22343156  0.00657698    -0.66300
O55         O  0.55699953  0.21098197  0.49354794    -1.12900
C56         C  0.49713028  0.36973776  0.50862266     1.05300
O57         O  0.36285663  0.29972748  0.49557492    -0.79500
O58         O  0.42834818  0.31212845  0.44647472    -0.67100
Ni59       Ni  0.61228546  0.15789349  0.02191334     1.34900
C60         C  0.47545540  0.30153510  0.43645901     0.84000
O61         O  0.49058556  0.15844372  0.98348418    -0.80100
O62         O  0.57361221  0.11598096  0.02218658    -0.90300
C63         C  0.36697543  0.25655872  0.50317700     0.83600
O64         O  0.58990745  0.17938046  0.06731173    -0.68500
O65         O  0.45181913  0.37283064  0.48948567    -0.87800
C66         C  0.54115308  0.18952846  0.07442058     0.84400
C67         C  0.53052423  0.11829772  0.00052506     1.06000
H68         H  0.46413643  0.27620007  0.04341219     0.37800
O69         O  0.46672494  0.27780060  0.01685538    -1.10500
O70         O  0.51617083  0.30387258  0.45733145    -0.67100
Ni71       Ni  0.54661899  0.27054085  0.50978968     1.26300
O72         O  0.50475371  0.18364659  0.05199393    -0.67400
O73         O  0.53571639  0.32951590  0.52599659    -0.79700
C74         C  0.65586215  0.23355462  0.00992205     0.83800
O75         O  0.61692163  0.26636441  0.50030611    -0.66800
Ni76       Ni  0.41200858  0.33182713  0.49296612     1.27400
Ni77       Ni  0.47699873  0.21816921  0.99977416     1.26100
H78         H  0.55923890  0.21283819  0.46678911     0.38300
O79         O  0.63770710  0.20085284  0.25461581    -0.81600
O80         O  0.38260649  0.23723129  0.24976006    -0.66300
O81         O  0.52452833  0.22777390  0.23121678    -1.12900
C82         C  0.46292357  0.38665372  0.24922819     1.05300
O83         O  0.33123994  0.31593007  0.22611970    -0.79500
O84         O  0.40241744  0.32746175  0.18130572    -0.67100
Ni85       Ni  0.58780902  0.16963846  0.25760064     1.34900
C86         C  0.45114112  0.31719666  0.17416738     0.84000
O87         O  0.46372844  0.17298990  0.22439572    -0.80100
O88         O  0.54718330  0.12938640  0.26142253    -0.90300
C89         C  0.33575318  0.27356394  0.23895789     0.83600
O90         O  0.57159695  0.19030497  0.30382961    -0.68500
O91         O  0.41960662  0.38957515  0.22748055    -0.87800
C92         C  0.52421356  0.20173635  0.31355554     0.84400
C93         C  0.50201839  0.13267908  0.24194294     1.06000
H94         H  0.44090178  0.29011985  0.28296560     0.37800
O95         O  0.44353470  0.29162294  0.25629068    -1.10500
O96         O  0.48782887  0.32234978  0.19684705    -0.67100
Ni97       Ni  0.51543185  0.28699421  0.24882233     1.26300
O98         O  0.48365155  0.19899727  0.29282393    -0.67400
O99         O  0.50288688  0.34623649  0.26572290    -0.79700
C100        C  0.63405938  0.24386164  0.24722232     0.83800
O101        O  0.58795206  0.28124953  0.24193550    -0.66800
Ni102      Ni  0.38042090  0.34823467  0.22698619     1.27400
Ni103      Ni  0.45333911  0.23206783  0.24031652     1.26100
H104        H  0.52622525  0.22974503  0.20451372     0.38300
O105        O  0.06186094  0.03806264  0.49874123    -0.75200
O106        O  0.05294516  0.41587244  0.51284264    -0.75200
O107        O  0.06393257  0.47616376  0.45482295    -0.75200
O108        O  0.05816271  0.47512460  0.05797188    -0.75300
O109        O  0.95931575  0.01999481  0.05062504    -0.75200
O110        O  0.94953231  0.02784806  0.44328494    -0.75200
O111        O  0.96032873  0.45879357  0.49916927    -0.75200
O112        O  0.96253157  0.08421310  0.99182338    -0.75200
Ni113      Ni  0.06570672  0.47352523  0.50897069     1.25400
Ni114      Ni  0.94938639  0.02664003  0.99555302     1.25400
C115        C  0.01217978  0.08203955  0.99505848     0.87000
C116        C  0.00332110  0.41810926  0.50697677     0.87000
C117        C  0.01833669  0.49650148  0.42996463     0.87000
C118        C  0.00780137  0.99782634  0.07226553     0.87100
O119        O  0.01984979  0.42780707  0.25902915    -0.75200
O120        O  0.04720506  0.04305075  0.24739020    -0.75200
O121        O  0.04919120  0.97656133  0.30567584    -0.75200
O122        O  0.02953326  0.48801654  0.19984139    -0.75300
O123        O  0.93703944  0.03106124  0.19102857    -0.75200
O124        O  0.95760430  0.01871909  0.30162988    -0.75200
O125        O  0.95494387  0.08436101  0.24150115    -0.75200
O126        O  0.92720579  0.47019660  0.24421012    -0.75200
Ni127      Ni  0.03211191  0.48547021  0.25481727     1.25400
Ni128      Ni  0.94335334  0.02658472  0.24598386     1.25400
C129        C  0.97058721  0.42961174  0.25206156     0.87000
C130        C  0.00389743  0.08312922  0.24375227     0.87000
C131        C  0.00739375  0.99587599  0.32180642     0.87000
C132        C  0.98306489  0.50998729  0.17557053     0.87100
O133        O  0.57565914  0.02966234  0.50590561    -0.75200
O134        O  0.55572254  0.41163485  0.51314610    -0.75200
O135        O  0.56541773  0.47301588  0.45513750    -0.75200
O136        O  0.55834374  0.47035315  0.06301944    -0.75300
O137        O  0.46578166  0.01464156  0.04975904    -0.75200
O138        O  0.47347515  0.01466259  0.44216081    -0.75200
O139        O  0.46313823  0.45465410  0.50089328    -0.75200
O140        O  0.47550691  0.07488972  0.99085006    -0.75200
Ni141      Ni  0.56886107  0.46926064  0.50945009     1.25400
Ni142      Ni  0.46321716  0.01744064  0.99461577     1.25400
C143        C  0.52460516  0.07308277  0.99859778     0.87000
C144        C  0.50595140  0.41397304  0.50802355     0.87000
C145        C  0.51939992  0.49377147  0.43075477     0.87000
C146        C  0.51214584  0.99236292  0.07424829     0.87100
O147        O  0.51799145  0.43009308  0.25846776    -0.75200
O148        O  0.53573119  0.04782469  0.24937522    -0.75200
O149        O  0.52593554  0.98791915  0.30808695    -0.75200
O150        O  0.52468971  0.49124994  0.19895880    -0.75300
O151        O  0.43148827  0.03522328  0.18719913    -0.75200
O152        O  0.43333914  0.02972762  0.29507195    -0.75200
O153        O  0.44318789  0.09110191  0.23714993    -0.75200
O154        O  0.42525761  0.47214595  0.24463914    -0.75200
Ni155      Ni  0.52970435  0.48782894  0.25421812     1.25400
Ni156      Ni  0.42977193  0.03366217  0.24065690     1.25400
C157        C  0.46889920  0.43168984  0.25165815     0.87000
C158        C  0.49301804  0.08857952  0.24234653     0.87000
C159        C  0.47941895  0.00887592  0.31943624     0.87000
C160        C  0.47758809  0.51333111  0.17522470     0.87100
C161        C  0.47698288  0.01017439  0.36089753    -0.17200
C162        C  0.52236411  0.99243736  0.38931740    -0.32300
H163        H  0.43571881  0.52704049  0.36792209     0.11900
H164        H  0.56350254  0.97553142  0.38209905     0.12400
C165        C  0.51542792  0.99085902  0.11639558    -0.17200
C166        C  0.47238088  0.01560821  0.13274347    -0.32300
H167        H  0.55674718  0.46856943  0.13480044     0.11900
H168        H  0.43177900  0.03767246  0.11454956     0.12400
C169        C  0.01886738  0.99117642  0.36431940    -0.17200
C170        C  0.97983465  0.01309896  0.38465490    -0.32300
H171        H  0.93533591  0.52738195  0.36694108     0.11900
H172        H  0.93707376  0.03498180  0.36966202     0.12400
C173        C  0.01455711  0.99460754  0.11465101    -0.17200
C174        C  0.97194871  0.01567334  0.13296965    -0.32300
H175        H  0.06450066  0.46968014  0.13296599     0.11900
H176        H  0.92982677  0.03595397  0.11642433     0.12400
C177        C  0.53697992  0.26946617  0.39062232    -0.14100
C178        C  0.48542778  0.28069706  0.40238045     0.08100
C179        C  0.44788414  0.26379705  0.38591844    -0.14100
C180        C  0.46206300  0.23537820  0.35857425    -0.14100
C181        C  0.51376771  0.22382793  0.34701554     0.08100
C182        C  0.55112157  0.24110400  0.36320155    -0.14100
H183        H  0.56695612  0.28157533  0.40328551     0.12100
H184        H  0.40829806  0.27115691  0.39502751     0.12100
H185        H  0.43211298  0.22319517  0.34598608     0.12100
H186        H  0.59069043  0.23371643  0.35405614     0.12100
C187        C  0.47031551  0.22393110  0.11406894    -0.14100
C188        C  0.52239618  0.21692313  0.10434782     0.08100
C189        C  0.54796891  0.24674526  0.11479591    -0.14100
C190        C  0.52156517  0.28336310  0.13414075    -0.14100
C191        C  0.46953060  0.29031622  0.14391355     0.08100
C192        C  0.44388027  0.26058726  0.13336900    -0.14100
H193        H  0.44911323  0.20212630  0.10552108     0.12100
H194        H  0.58713698  0.24326198  0.10649744     0.12100
H195        H  0.54280422  0.30511589  0.14275095     0.12100
H196        H  0.40473679  0.26404000  0.14169600     0.12100
C197        C  0.78793569  0.21560317  0.25137521    -0.14100
C198        C  0.78651799  0.26212442  0.24288789     0.08100
C199        C  0.73439472  0.30257911  0.23542804    -0.14100
C200        C  0.68498114  0.29670988  0.23659533    -0.14100
C201        C  0.68634943  0.25021633  0.24515288     0.08100
C202        C  0.73844720  0.20971812  0.25242327    -0.14100
H203        H  0.82726697  0.18368610  0.25711327     0.12100
H204        H  0.73166096  0.33900166  0.22882312     0.12100
H205        H  0.64571232  0.32868590  0.23089679     0.12100
H206        H  0.74113477  0.17332237  0.25914138     0.09300
C207        C  0.23875865  0.21275627  0.25459102    -0.14100
C208        C  0.18607705  0.25248610  0.24632616     0.08100
C209        C  0.18297020  0.29930232  0.23533521    -0.14100
C210        C  0.23152268  0.30617672  0.23275728    -0.14100
C211        C  0.28419825  0.26640435  0.24123513     0.08100
C212        C  0.28721733  0.21963216  0.25213286    -0.14100
H213        H  0.24272703  0.17617624  0.26314429     0.12100
H214        H  0.14305336  0.33066794  0.22873233     0.12100
H215        H  0.22775917  0.34270854  0.22430919     0.12100
H216        H  0.32707639  0.18819647  0.25877228     0.12100
C217        C  0.81596339  0.20744095  0.51434136    -0.14100
C218        C  0.81216475  0.25474831  0.50479172     0.08100
C219        C  0.75022831  0.29739770  0.99425053    -0.14100
C220        C  0.70254903  0.28935157  0.99748317    -0.14100
C221        C  0.70661746  0.24195745  0.00710929     0.08100
C222        C  0.76799226  0.19956495  0.51648375    -0.14100
H223        H  0.85605045  0.17633155  0.52004234     0.12100
H224        H  0.74560998  0.33432775  0.98681451     0.12100
H225        H  0.66245649  0.32036360  0.99243118     0.12100
H226        H  0.77241393  0.16267263  0.52374229     0.12100
C227        C  0.25702102  0.20244047  0.01219678    -0.14100
C228        C  0.20511390  0.24309297  0.00523847     0.08100
C229        C  0.21326570  0.28429986  0.49919657    -0.14100
C230        C  0.26271674  0.29022471  0.49824766    -0.14100
C231        C  0.31478885  0.24980167  0.50510681     0.08100
C232        C  0.30662848  0.20802896  0.01062972    -0.14100
H233        H  0.25940651  0.16612899  0.01873868     0.12100
H234        H  0.17404308  0.31628661  0.49380333     0.12100
H235        H  0.25998985  0.32666939  0.49196606     0.12100
H236        H  0.34573942  0.17593928  0.01600154     0.12100
C237        C  0.03390763  0.27425009  0.38892702    -0.14100
C238        C  0.98323093  0.28347724  0.40150625     0.08100
C239        C  0.94861984  0.26242538  0.38742434    -0.14100
C240        C  0.96480865  0.23209061  0.36148107    -0.14100
C241        C  0.01564049  0.22266786  0.34906656     0.08100
C242        C  0.05012289  0.24388458  0.36305553    -0.14100
H243        H  0.06170799  0.28950279  0.39984346     0.12100
H244        H  0.90997242  0.26800973  0.39742544     0.12100
H245        H  0.93706659  0.21678852  0.35056354     0.12100
H246        H  0.08886318  0.23823206  0.35316770     0.12100
C247        C  0.96691804  0.22690010  0.11157041    -0.14100
C248        C  0.01890654  0.21995475  0.10171792     0.08100
C249        C  0.04627848  0.24758051  0.11420881    -0.14100
C250        C  0.02171285  0.28203056  0.13578354    -0.14100
C251        C  0.96969967  0.28898732  0.14561728     0.08100
C252        C  0.94234195  0.26135711  0.13310661    -0.14100
H253        H  0.94441755  0.20671564  0.10156666     0.12100
H254        H  0.08548382  0.24405756  0.10595558     0.12100
H255        H  0.04420763  0.30220906  0.14580380     0.12100
H256        H  0.90310027  0.26488636  0.14129973     0.12100
O257        O  0.16538905  0.18905004  0.51968160    -0.81600
O258        O  0.90925714  0.22597261  0.50657142    -0.66300
O259        O  0.04367181  0.22035082  0.98868333    -1.12900
C260        C  0.98293459  0.37944569  0.00408143     1.05300
O261        O  0.84885059  0.30974505  0.98763954    -0.79500
O262        O  0.91783810  0.32041677  0.93998698    -0.67100
Ni263      Ni  0.11485362  0.15782710  0.51880454     1.34900
C264        C  0.96591788  0.30950982  0.93139176     0.84000
O265        O  0.99046174  0.16294482  0.48054811    -0.80100
O266        O  0.07365523  0.11769090  0.51808889    -0.90300
C267        C  0.85379061  0.26651911  0.99704665     0.83600
O268        O  0.09482445  0.17757135  0.56521843    -0.68500
O269        O  0.93857876  0.38235316  0.98370686    -0.87800
C270        C  0.04640374  0.18790730  0.57294419     0.84400
C271        C  0.02869893  0.12203935  0.49730245     1.06000
H272        H  0.97156899  0.27621775  0.54401546     0.37800
O273        O  0.97268435  0.27890787  0.51716644    -1.10500
O274        O  0.00482817  0.31352915  0.95289842    -0.67100
Ni275      Ni  0.03387676  0.27979492  0.00531506     1.26300
O276        O  0.00875411  0.18413385  0.55020272    -0.67400
O277        O  0.02208137  0.33919726  0.02132428    -0.79700
C278        C  0.16190057  0.23153533  0.50842679     0.83800
O279        O  0.10593366  0.27414500  0.99741623    -0.66800
Ni280      Ni  0.89866299  0.34150199  0.98587297     1.27400
Ni281      Ni  0.98056604  0.22068998  0.49863782     1.26100
H282        H  0.04655394  0.22194373  0.96207723     0.38300
O283        O  0.14984852  0.19579832  0.76233867    -0.81600
O284        O  0.89384105  0.22870843  0.75229497    -0.66300
O285        O  0.03722512  0.22011111  0.73643713    -1.12900
C286        C  0.97526019  0.37932113  0.75206750     1.05300
O287        O  0.84281016  0.30830686  0.73172289    -0.79500
O288        O  0.91340889  0.31899513  0.68589252    -0.67100
Ni289      Ni  0.10109973  0.16327199  0.76443749     1.34900
C290        C  0.96207151  0.30861318  0.67859660     0.84000
O291        O  0.97897057  0.16386246  0.72897519    -0.80100
O292        O  0.06230134  0.12162439  0.76696507    -0.90300
C293        C  0.84699705  0.26559367  0.74284713     0.83600
O294        O  0.08145147  0.18473808  0.81006615    -0.68500
O295        O  0.93147072  0.38216185  0.73084882    -0.87800
C296        C  0.03333468  0.19552746  0.81854098     0.84400
C297        C  0.01867307  0.12386075  0.74617522     1.06000
H298        H  0.95188897  0.28252713  0.78718940     0.37800
O299        O  0.95485217  0.28384978  0.76060995    -1.10500
O300        O  0.99874214  0.31418101  0.70093980    -0.67100
Ni301      Ni  0.02654740  0.27986469  0.75315874     1.26300
O302        O  0.99479624  0.19082885  0.79716808    -0.67400
O303        O  0.01402030  0.33906604  0.76962771    -0.79700
C304        C  0.14453295  0.23901425  0.75231294     0.83800
O305        O  0.09770814  0.27551411  0.74540164    -0.66800
Ni306      Ni  0.89198384  0.34064204  0.73141892     1.27400
Ni307      Ni  0.96580754  0.22378823  0.74454441     1.26100
H308        H  0.03974743  0.22167332  0.70982993     0.38300
O309        O  0.66934689  0.18766801  0.52317329    -0.81600
O310        O  0.41341989  0.21946271  0.50877097    -0.66300
O311        O  0.54880876  0.21418446  0.99243547    -1.12900
C312        C  0.48898042  0.37295584  0.00707537     1.05300
O313        O  0.35417973  0.30377412  0.99158829    -0.79500
O314        O  0.42190150  0.31478023  0.94362793    -0.67100
Ni315      Ni  0.62081418  0.15455873  0.52250801     1.34900
C316        C  0.46966390  0.30406775  0.93465154     0.84000
O317        O  0.49852669  0.15552647  0.48448263    -0.80100
O318        O  0.58228219  0.11250519  0.52221773    -0.90300
C319        C  0.35805960  0.26074501  0.00005650     0.83600
O320        O  0.59923893  0.17484904  0.56844475    -0.68500
O321        O  0.44420854  0.37618910  0.98696758    -0.87800
C322        C  0.55070153  0.18475938  0.57583306     0.84400
C323        C  0.53861145  0.11522884  0.50096007     1.06000
H324        H  0.47425080  0.27187164  0.54574392     0.37800
O325        O  0.47580787  0.27399581  0.51903113    -1.10500
O326        O  0.50921397  0.30714020  0.95620011    -0.67100
Ni327      Ni  0.53811036  0.27383038  0.00873139     1.26300
O328        O  0.51407565  0.17924774  0.55336394    -0.67400
O329        O  0.52681366  0.33271911  0.02508726    -0.79700
C330        C  0.66409344  0.23045423  0.51087467     0.83800
O331        O  0.60873067  0.26955759  0.00011889    -0.66800
Ni332      Ni  0.40376454  0.33552976  0.98960882     1.27400
Ni333      Ni  0.48552275  0.21470749  0.50143685     1.26100
H334        H  0.55160816  0.21581930  0.96578107     0.38300
O335        O  0.64541857  0.19837285  0.75831983    -0.81600
O336        O  0.39020917  0.23400395  0.74947172    -0.66300
O337        O  0.53273763  0.22470481  0.73303866    -1.12900
C338        C  0.46901593  0.38443370  0.74909848     1.05300
O339        O  0.33829849  0.31261006  0.72595351    -0.79500
O340        O  0.41056936  0.32352774  0.68158672    -0.67100
Ni341      Ni  0.59543000  0.16701587  0.76076337     1.34900
C342        C  0.45959988  0.31304507  0.67495014     0.84000
O343        O  0.47241794  0.16982468  0.72524155    -0.80100
O344        O  0.55468053  0.12660341  0.76383610    -0.90300
C345        C  0.34322200  0.27007642  0.73875952     0.83600
O346        O  0.57694611  0.18883008  0.80638043    -0.68500
O347        O  0.42616677  0.38689490  0.72707693    -0.87800
C348        C  0.52896063  0.20003246  0.81510803     0.84400
C349        C  0.51014284  0.12966374  0.74352354     1.06000
H350        H  0.44701957  0.28781221  0.78327854     0.37800
O351        O  0.45033349  0.28899818  0.75673311    -1.10500
O352        O  0.49575295  0.31882717  0.69767121    -0.67100
Ni353      Ni  0.52251799  0.28446761  0.74996016     1.26300
O354        O  0.48964677  0.19647410  0.79368496    -0.67400
O355        O  0.50889004  0.34424298  0.76615463    -0.79700
C356        C  0.64170532  0.24136081  0.74997096     0.83800
O357        O  0.59537831  0.27875700  0.74370489    -0.66800
Ni358      Ni  0.38732284  0.34521309  0.72672308     1.27400
Ni359      Ni  0.46109548  0.22909867  0.74099119     1.26100
H360        H  0.53555194  0.22607608  0.70652602     0.38300
O361        O  0.05480229  0.04164029  0.99916260    -0.75200
O362        O  0.03988123  0.42230236  0.00711978    -0.75200
O363        O  0.03921817  0.48765404  0.94749949    -0.75200
O364        O  0.06165576  0.47340196  0.56196570    -0.75300
O365        O  0.96970106  0.01488271  0.55276288    -0.75200
O366        O  0.94511507  0.03071339  0.94123203    -0.75200
O367        O  0.94763816  0.46424630  0.00073303    -0.75200
O368        O  0.96992825  0.08029147  0.49372335    -0.75200
Ni369      Ni  0.05223873  0.47994368  0.00309308     1.25400
Ni370      Ni  0.95695581  0.02255660  0.49774094     1.25400
C371        C  0.01944448  0.07827447  0.49579921     0.87000
C372        C  0.99060413  0.42400667  0.00458827     0.87000
C373        C  0.98980877  0.51020463  0.92682299     0.87000
C374        C  0.01882967  0.99273956  0.57348942     0.87100
O375        O  0.03253528  0.42201770  0.75575520    -0.75200
O376        O  0.05534144  0.03863805  0.74980886    -0.75200
O377        O  0.05391433  0.97352127  0.80778303    -0.75200
O378        O  0.03265238  0.48756908  0.69676824    -0.75300
O379        O  0.94729131  0.02632247  0.69132797    -0.75200
O380        O  0.96196443  0.01619868  0.80137502    -0.75200
O381        O  0.96284020  0.08045430  0.74177669    -0.75200
O382        O  0.94038599  0.46401861  0.74975387    -0.75200
Ni383      Ni  0.04522724  0.47962714  0.75196496     1.25400
Ni384      Ni  0.95080529  0.02286782  0.74591056     1.25400
C385        C  0.98316937  0.42379164  0.75317038     0.87000
C386        C  0.01203060  0.07889766  0.74529297     0.87000
C387        C  0.01091101  0.99359122  0.82268642     0.87000
C388        C  0.98363894  0.51017782  0.67574866     0.87100
O389        O  0.56807405  0.03243900  0.00660772    -0.75200
O390        O  0.54827815  0.41410843  0.01301383    -0.75200
O391        O  0.56141426  0.47454196  0.95608704    -0.75200
O392        O  0.56724747  0.46782680  0.56285102    -0.75300
O393        O  0.47578766  0.01094953  0.55152702    -0.75200
O394        O  0.46900241  0.01639247  0.94090177    -0.75200
O395        O  0.45580858  0.45776950  0.99918798    -0.75200
O396        O  0.48298935  0.07210831  0.49221945    -0.75200
Ni397      Ni  0.56223938  0.47135355  0.01004954     1.25400
Ni398      Ni  0.47066873  0.01462486  0.49626943     1.25400
C399        C  0.53224940  0.07024605  0.49891399     0.87000
C400        C  0.49831907  0.41689730  0.00689849     0.87000
C401        C  0.51634685  0.49510000  0.93084975     0.87000
C402        C  0.52285293  0.98860618  0.57524773     0.87100
O403        O  0.52390433  0.42774059  0.75924125    -0.75200
O404        O  0.54350778  0.04476017  0.75141637    -0.75200
O405        O  0.53021065  0.98602845  0.80931753    -0.75200
O406        O  0.53350591  0.48802333  0.70034900    -0.75300
O407        O  0.44150992  0.03208597  0.68718854    -0.75200
O408        O  0.43767858  0.02781704  0.79410155    -0.75200
O409        O  0.45103614  0.08835383  0.73736527    -0.75200
O410        O  0.43133702  0.47022129  0.74345709    -0.75200
Ni411      Ni  0.53620916  0.48512058  0.75553308     1.25400
Ni412      Ni  0.43717320  0.03107097  0.74013367     1.25400
C413        C  0.47482681  0.42958419  0.75137298     0.87000
C414        C  0.50095300  0.08562605  0.74366492     0.87000
C415        C  0.48268685  0.00726280  0.81941012     0.87000
C416        C  0.48709218  0.51039600  0.67589982     0.87100
C417        C  0.47760751  0.00935490  0.86041545    -0.17200
C418        C  0.52149212  0.99294608  0.88976481    -0.32300
H419        H  0.43569956  0.52636954  0.86635286     0.11900
H420        H  0.56343106  0.97639630  0.88371977     0.12400
C421        C  0.52717800  0.98683636  0.61750126    -0.17200
C422        C  0.48419354  0.01180719  0.63381066    -0.32300
H423        H  0.56723383  0.46532414  0.63544252     0.11900
H424        H  0.44375292  0.03401296  0.61545076     0.12400
C425        C  0.01977479  0.99020073  0.86513048    -0.17200
C426        C  0.97933856  0.01398411  0.88392804    -0.32300
H427        H  0.06172188  0.46828235  0.88043898     0.11900
H428        H  0.93741039  0.03632566  0.86768441     0.12400
C429        C  0.02677013  0.98916839  0.61596878    -0.17200
C430        C  0.98417869  0.01016640  0.63432417    -0.32300
H431        H  0.06057819  0.47211482  0.63317262     0.11900
H432        H  0.94211793  0.03039898  0.61766394     0.12400
C433        C  0.53374409  0.27248347  0.89014174    -0.14100
C434        C  0.48205318  0.28205423  0.90132256     0.08100
C435        C  0.44726056  0.26227548  0.88535272    -0.14100
C436        C  0.46423966  0.23281435  0.85896078    -0.14100
C437        C  0.51607204  0.22300418  0.84794243     0.08100
C438        C  0.55071052  0.24303914  0.86372308    -0.14100
H439        H  0.56166193  0.28680713  0.90249478     0.12100
H440        H  0.40776059  0.26820828  0.89416086     0.12100
H441        H  0.43634929  0.21843291  0.84666083     0.12100
H442        H  0.59022759  0.23705551  0.85492579     0.12100
C443        C  0.48042923  0.21832567  0.61599940    -0.14100
C444        C  0.53232794  0.21164694  0.60610734     0.08100
C445        C  0.55763363  0.24170324  0.61646584    -0.14100
C446        C  0.53093212  0.27844803  0.63564202    -0.14100
C447        C  0.47884213  0.28533213  0.64528318     0.08100
C448        C  0.45367745  0.25513227  0.63507951    -0.14100
H449        H  0.45947355  0.19628636  0.60758346     0.12100
H450        H  0.59668364  0.23843690  0.60807494     0.12100
H451        H  0.55184617  0.30051505  0.64406438     0.12100
H452        H  0.41455673  0.25847158  0.64338634     0.12100
C453        C  0.79526127  0.21276102  0.75077432    -0.14100
C454        C  0.79458811  0.25917023  0.74461347     0.08100
C455        C  0.74303239  0.29972390  0.73992375    -0.14100
C456        C  0.69349839  0.29404192  0.74148910    -0.14100
C457        C  0.69414245  0.24764023  0.74773527     0.08100
C458        C  0.74568442  0.20707523  0.75225256    -0.14100
H459        H  0.83409167  0.18076250  0.75430250     0.12100
H460        H  0.74088495  0.33604745  0.73522996     0.12100
H461        H  0.65471535  0.32607747  0.73797787     0.12100
H462        H  0.74784834  0.17074846  0.75699162     0.09300
C463        C  0.24826580  0.20779043  0.75710829    -0.14100
C464        C  0.19524788  0.24702085  0.74848261     0.08100
C465        C  0.19117701  0.29391796  0.73598147    -0.14100
C466        C  0.23910891  0.30142123  0.73245809    -0.14100
C467        C  0.29216142  0.26221461  0.74143423     0.08100
C468        C  0.29615315  0.21529856  0.75366523    -0.14100
H469        H  0.25290552  0.17118989  0.76670077     0.12100
H470        H  0.15093848  0.32493118  0.72895573     0.12100
H471        H  0.23457659  0.33800701  0.72296187     0.12100
H472        H  0.33636377  0.18424937  0.76073465     0.12100
C473        C  0.80713643  0.21085812  0.01023353    -0.14100
C474        C  0.80307346  0.25824406  0.00049573     0.08100
C475        C  0.75927418  0.29400517  0.49765791    -0.14100
C476        C  0.71124991  0.28611022  0.49967590    -0.14100
C477        C  0.71505606  0.23878195  0.50900754     0.08100
C478        C  0.75948458  0.20282263  0.01354181    -0.14100
H479        H  0.84719607  0.17981583  0.01525839     0.12100
H480        H  0.75485919  0.33087750  0.49024923     0.12100
H481        H  0.67111117  0.31716577  0.49391863     0.12100
H482        H  0.76408338  0.16588880  0.02090277     0.12100
C483        C  0.26654375  0.19730930  0.51417240    -0.14100
C484        C  0.21448256  0.23778090  0.50714819     0.08100
C485        C  0.20415136  0.28947387  0.99679483    -0.14100
C486        C  0.25372981  0.29506404  0.99530693    -0.14100
C487        C  0.30564033  0.25442839  0.00213600     0.08100
C488        C  0.31606699  0.20323709  0.51310523    -0.14100
H489        H  0.26909361  0.16091623  0.52036657     0.12100
H490        H  0.16505025  0.32158062  0.99139563     0.12100
H491        H  0.25124822  0.33140245  0.98870896     0.12100
H492        H  0.35532538  0.17129754  0.51844838     0.12100
C493        C  0.03158834  0.27606911  0.88819966    -0.14100
C494        C  0.97992697  0.28512189  0.89930462     0.08100
C495        C  0.94773970  0.26185580  0.88550878    -0.14100
C496        C  0.96721702  0.22958681  0.86135240    -0.14100
C497        C  0.01894091  0.22043648  0.85032701     0.08100
C498        C  0.05106167  0.24380660  0.86404471    -0.14100
H499        H  0.05764064  0.29294759  0.89901538     0.12100
H500        H  0.90846384  0.26719888  0.89445920     0.12100
H501        H  0.94120009  0.21266442  0.85056753     0.12100
H502        H  0.09037523  0.23842353  0.85513774     0.12100
C503        C  0.97794801  0.21924914  0.61481103    -0.14100
C504        C  0.02958983  0.21271274  0.60449862     0.08100
C505        C  0.05669409  0.24070049  0.61663021    -0.14100
C506        C  0.03199200  0.27537341  0.63800366    -0.14100
C507        C  0.98012781  0.28219117  0.64804792     0.08100
C508        C  0.95325874  0.25390650  0.63619625    -0.14100
H509        H  0.95567736  0.19873974  0.60512372     0.12100
H510        H  0.09561298  0.23749298  0.60804315     0.12100
H511        H  0.05417225  0.29600125  0.64757802     0.12100
H512        H  0.91423508  0.25724262  0.64466954     0.12100
O513        O  0.15617278  0.69553123  0.01885427    -0.81600
O514        O  0.90132760  0.72859800  0.00413354    -0.66300
O515        O  0.05332824  0.71583642  0.49120342    -1.12900
C516        C  0.98847431  0.87609037  0.50535612     1.05300
O517        O  0.85844071  0.80280488  0.49194276    -0.79500
O518        O  0.92441897  0.81526690  0.44304111    -0.67100
Ni519      Ni  0.10687366  0.66336304  0.01889339     1.34900
C520        C  0.97198074  0.80448767  0.43363949     0.84000
O521        O  0.98506914  0.66523508  0.98004271    -0.80100
O522        O  0.06722295  0.62199894  0.01920383    -0.90300
C523        C  0.86380745  0.75938364  0.50027598     0.83600
O524        O  0.08512239  0.68510487  0.06431068    -0.68500
O525        O  0.94438665  0.87801948  0.48550584    -0.87800
C526        C  0.03634213  0.69560785  0.07139446     0.84400
C527        C  0.02367678  0.62494341  0.99762741     1.06000
H528        H  0.95903951  0.78259956  0.03994503     0.37800
O529        O  0.96170061  0.78410719  0.01336257    -1.10500
O530        O  0.01163155  0.80857493  0.45434504    -0.67100
Ni531      Ni  0.04188248  0.77601998  0.50700505     1.26300
O532        O  0.99980606  0.69006748  0.04890317    -0.67400
O533        O  0.02861166  0.83621059  0.52228919    -0.79700
C534        C  0.15219195  0.73811653  0.00746691     0.83800
O535        O  0.11335297  0.77154332  0.49845545    -0.66800
Ni536      Ni  0.90642813  0.83584465  0.48907680     1.27400
Ni537      Ni  0.97248105  0.72432914  0.99663693     1.26100
H538        H  0.05613620  0.71734518  0.46456707     0.38300
O539        O  0.14014027  0.69836039  0.25576625    -0.81600
O540        O  0.88382583  0.73541649  0.25150465    -0.66300
O541        O  0.02619311  0.72548592  0.23256992    -1.12900
C542        C  0.97015742  0.88240200  0.25211773     1.05300
O543        O  0.83351496  0.81504665  0.23100366    -0.79500
O544        O  0.90356481  0.82655414  0.18492269    -0.67100
Ni545      Ni  0.08992651  0.66725208  0.25838209     1.34900
C546        C  0.95182470  0.81639559  0.17692594     0.84000
O547        O  0.96501514  0.67120492  0.22545569    -0.80100
O548        O  0.04925600  0.62714399  0.26161006    -0.90300
C549        C  0.83722801  0.77243292  0.24197951     0.83600
O550        O  0.07411159  0.68692882  0.30510942    -0.68500
O551        O  0.92502884  0.88660369  0.23167245    -0.87800
C552        C  0.02691921  0.69784613  0.31510809     0.84400
C553        C  0.00390371  0.63067998  0.24223284     1.06000
H554        H  0.94490070  0.78640136  0.28615818     0.37800
O555        O  0.94673849  0.78860780  0.25934249    -1.10500
O556        O  0.98961531  0.82026673  0.19945794    -0.67100
Ni557      Ni  0.01840451  0.78371895  0.25099321     1.26300
O558        O  0.98623439  0.69532977  0.29431380    -0.67400
O559        O  0.00855814  0.84157406  0.26888851    -0.79700
C560        C  0.13582949  0.74153562  0.24788536     0.83800
O561        O  0.08964115  0.77844452  0.24270198    -0.66800
Ni562      Ni  0.88398350  0.84634963  0.23142878     1.27400
Ni563      Ni  0.95512526  0.72984936  0.24217341     1.26100
H564        H  0.02716760  0.72819480  0.20569947     0.38300
O565        O  0.66159907  0.68973602  0.02317091    -0.81600
O566        O  0.40433700  0.72373046  0.00620482    -0.66300
O567        O  0.55603130  0.71101688  0.49325490    -1.12900
C568        C  0.49739024  0.86987611  0.50807084     1.05300
O569        O  0.36188862  0.80162383  0.49411558    -0.79500
O570        O  0.42845542  0.81271743  0.44548806    -0.67100
Ni571      Ni  0.61236840  0.65728118  0.02281756     1.34900
C572        C  0.47586875  0.80150556  0.43585130     0.84000
O573        O  0.49074341  0.65821102  0.98366449    -0.80100
O574        O  0.57338617  0.61567174  0.02282617    -0.90300
C575        C  0.36551034  0.75866610  0.50201236     0.83600
O576        O  0.58932945  0.67924185  0.06794059    -0.68500
O577        O  0.45227618  0.87325732  0.48846742    -0.87800
C578        C  0.54031193  0.68976655  0.07464990     0.84400
C579        C  0.53053792  0.61805857  0.00085017     1.06000
H580        H  0.46378587  0.77656915  0.04298265     0.37800
O581        O  0.46680966  0.77785463  0.01650815    -1.10500
O582        O  0.51652578  0.80370409  0.45690804    -0.67100
Ni583      Ni  0.54616798  0.77052163  0.50945883     1.26300
O584        O  0.50414752  0.68382156  0.05205967    -0.67400
O585        O  0.53563784  0.82951777  0.52557705    -0.79700
C586        C  0.65655321  0.73244193  0.01085761     0.83800
O587        O  0.61702564  0.76544949  0.50046335    -0.66800
Ni588      Ni  0.41172540  0.83294111  0.49173802     1.27400
Ni589      Ni  0.47713382  0.71804014  0.99974072     1.26100
H590        H  0.55857453  0.71267499  0.46655275     0.38300
O591        O  0.63697623  0.70286783  0.25343305    -0.81600
O592        O  0.38283842  0.73639535  0.24976441    -0.66300
O593        O  0.52386057  0.72865205  0.23051682    -1.12900
C594        C  0.46115047  0.88726994  0.24903406     1.05300
O595        O  0.33060679  0.81497322  0.22617152    -0.79500
O596        O  0.40080160  0.82797297  0.18112917    -0.67100
Ni597      Ni  0.58777690  0.67079744  0.25646802     1.34900
C598        C  0.44936293  0.81809563  0.17380471     0.84000
O599        O  0.46390134  0.67302398  0.22393460    -0.80100
O600        O  0.54789938  0.62980077  0.26034479    -0.90300
C601        C  0.33571278  0.77235178  0.23890573     0.83600
O602        O  0.57181906  0.69083544  0.30293716    -0.68500
O603        O  0.41757594  0.89008425  0.22761540    -0.87800
C604        C  0.52470038  0.70167716  0.31297979     0.84400
C605        C  0.50249356  0.63282743  0.24136652     1.06000
H606        H  0.44037150  0.78994717  0.28278452     0.37800
O607        O  0.44274551  0.79168385  0.25605757    -1.10500
O608        O  0.48597808  0.82345832  0.19640024    -0.67100
Ni609      Ni  0.51424392  0.78786344  0.24830634     1.26300
O610        O  0.48409865  0.69884174  0.29237782    -0.67400
O611        O  0.50124276  0.84693760  0.26543668    -0.79700
C612        C  0.63280072  0.74610007  0.24636080     0.83800
O613        O  0.58638662  0.78310715  0.24122835    -0.66800
Ni614      Ni  0.37905382  0.84809368  0.22706469     1.27400
Ni615      Ni  0.45309929  0.73209648  0.23997140     1.26100
H616        H  0.52525789  0.73084974  0.20378040     0.38300
O617        O  0.07150662  0.53431654  0.50479877    -0.75200
O618        O  0.04381343  0.92010976  0.50763283    -0.75200
O619        O  0.04111068  0.98564637  0.44734475    -0.75200
O620        O  0.05153549  0.97820712  0.05773098    -0.75300
O621        O  0.96619664  0.51683864  0.05226342    -0.75200
O622        O  0.97133832  0.51792825  0.44056010    -0.75200
O623        O  0.95155321  0.96142504  0.50169806    -0.75200
O624        O  0.96639246  0.58236690  0.99338772    -0.75200
Ni625      Ni  0.05536943  0.97793380  0.50298981     1.25400
Ni626      Ni  0.95372588  0.52477983  0.99707000     1.25400
C627        C  0.01577277  0.58057155  0.99613862     0.87000
C628        C  0.99487781  0.92131012  0.50547596     0.87000
C629        C  0.99132031  0.00846808  0.42716308     0.87000
C630        C  0.01519826  0.49428682  0.07330762     0.87100
O631        O  0.02881990  0.92425300  0.25519012    -0.75200
O632        O  0.03843194  0.54569460  0.24996955    -0.75200
O633        O  0.02726718  0.48659166  0.30848913    -0.75200
O634        O  0.02899703  0.98979136  0.19618201    -0.75300
O635        O  0.93711384  0.53118660  0.18704690    -0.75200
O636        O  0.93467712  0.52837277  0.29417289    -0.75200
O637        O  0.94582460  0.58865987  0.23625136    -0.75200
O638        O  0.93687738  0.96646912  0.25015408    -0.75200
Ni639      Ni  0.04177331  0.98197059  0.25121735     1.25400
Ni640      Ni  0.93300478  0.53101927  0.24004012     1.25400
C641        C  0.97933067  0.92624672  0.25322561     0.87000
C642        C  0.99546611  0.58638650  0.24222780     0.87000
C643        C  0.98024430  0.50802332  0.31905487     0.87000
C644        C  0.97987232  0.01200969  0.17545532     0.87100
O645        O  0.57419134  0.53036992  0.50552833    -0.75200
O646        O  0.55624338  0.91140320  0.51301929    -0.75200
O647        O  0.56606687  0.97282052  0.45512999    -0.75200
O648        O  0.55801572  0.97059440  0.06296733    -0.75300
O649        O  0.46611229  0.51443672  0.05000759    -0.75200
O650        O  0.47277698  0.51457912  0.44203645    -0.75200
O651        O  0.46371035  0.95472466  0.50086493    -0.75200
O652        O  0.47553981  0.57476039  0.99103933    -0.75200
Ni653      Ni  0.56971642  0.96881142  0.50955837     1.25400
Ni654      Ni  0.46323962  0.51737240  0.99481456     1.25400
C655        C  0.52464236  0.57291345  0.99876398     0.87000
C656        C  0.50640500  0.91395358  0.50782327     0.87000
C657        C  0.51996662  0.99370538  0.43078515     0.87000
C658        C  0.51257813  0.49208681  0.07440550     0.87100
O659        O  0.51663505  0.93040437  0.25804296    -0.75200
O660        O  0.53637091  0.54785399  0.24939730    -0.75200
O661        O  0.52647474  0.48807617  0.30826481    -0.75200
O662        O  0.52376436  0.99156105  0.19872993    -0.75300
O663        O  0.43235616  0.53463915  0.18738826    -0.75200
O664        O  0.43383534  0.52962258  0.29504595    -0.75200
O665        O  0.44380145  0.59092002  0.23704933    -0.75200
O666        O  0.42394756  0.97277074  0.24433853    -0.75200
Ni667      Ni  0.52883550  0.98791749  0.25398983     1.25400
Ni668      Ni  0.43059077  0.53328666  0.24075183     1.25400
C669        C  0.46740962  0.93222584  0.25129170     0.87000
C670        C  0.49359346  0.58856576  0.24216741     0.87000
C671        C  0.47980179  0.50891440  0.31947985     0.87000
C672        C  0.47670034  0.01384519  0.17499738     0.87100
C673        C  0.47697391  0.51022306  0.36085337    -0.17200
C674        C  0.52214669  0.49253081  0.38936680    -0.32300
H675        H  0.43583938  0.02708114  0.36810940     0.11900
H676        H  0.56339269  0.47571797  0.38228442     0.12400
C677        C  0.51612957  0.49047568  0.11656213    -0.17200
C678        C  0.47314196  0.51502244  0.13299824    -0.32300
H679        H  0.55593667  0.96881967  0.13472457     0.11900
H680        H  0.43243962  0.53692238  0.11487629     0.12400
C681        C  0.97679088  0.51051047  0.36019174    -0.17200
C682        C  0.02174593  0.49401045  0.38882277    -0.32300
H683        H  0.06162899  0.96929546  0.37931006     0.11900
H684        H  0.06319570  0.47714246  0.38206521     0.12400
C685        C  0.02279114  0.49035935  0.11590204    -0.17200
C686        C  0.97964211  0.51202513  0.13343430    -0.32300
H687        H  0.05659536  0.97434317  0.13133745     0.11900
H688        H  0.93827110  0.53263384  0.11582892     0.12400
C689        C  0.53780592  0.76876704  0.39040637    -0.14100
C690        C  0.48616041  0.78015580  0.40204090     0.08100
C691        C  0.44870189  0.76311020  0.38567545    -0.14100
C692        C  0.46289237  0.73468110  0.35834166    -0.14100
C693        C  0.51452559  0.72326928  0.34669606     0.08100
C694        C  0.55195989  0.74039928  0.36299255    -0.14100
H695        H  0.56776227  0.78089413  0.40307289     0.12100
H696        H  0.40910798  0.77048175  0.39477730     0.12100
H697        H  0.43292848  0.72251962  0.34574120     0.12100
H698        H  0.59153823  0.73301070  0.35386305     0.12100
C699        C  0.46884050  0.72473033  0.11375779    -0.14100
C700        C  0.52107027  0.71760744  0.10425683     0.08100
C701        C  0.54644331  0.74761006  0.11459654    -0.14100
C702        C  0.51979355  0.78440993  0.13372672    -0.14100
C703        C  0.46774493  0.79132053  0.14346520     0.08100
C704        C  0.44219951  0.76151525  0.13290306    -0.14100
H705        H  0.44775461  0.70282836  0.10523727     0.12100
H706        H  0.58569028  0.74407650  0.10641087     0.12100
H707        H  0.54093354  0.80624759  0.14230428     0.12100
H708        H  0.40301201  0.76496369  0.14114965     0.12100
C709        C  0.78604443  0.71923017  0.24879977    -0.14100
C710        C  0.78485247  0.76584284  0.24320542     0.08100
C711        C  0.73298759  0.80607764  0.23825044    -0.14100
C712        C  0.68361122  0.79982255  0.23900133    -0.14100
C713        C  0.68483706  0.75316630  0.24459767     0.08100
C714        C  0.73672079  0.71298499  0.24941805    -0.14100
H715        H  0.82513266  0.68744049  0.25249411     0.12100
H716        H  0.73050298  0.84251255  0.23394316     0.12100
H717        H  0.64451135  0.83158183  0.23535656     0.12100
H718        H  0.73938267  0.67649450  0.25379885     0.09300
C719        C  0.23979665  0.70978028  0.25295308    -0.14100
C720        C  0.18696391  0.74923169  0.24496832     0.08100
C721        C  0.18348211  0.79632793  0.23474690    -0.14100
C722        C  0.23170617  0.80380445  0.23266906    -0.14100
C723        C  0.28456484  0.76438778  0.24088224     0.08100
C724        C  0.28806602  0.71727741  0.25100402    -0.14100
H725        H  0.24397538  0.67305286  0.26095261     0.12100
H726        H  0.14345340  0.82755895  0.22841460     0.12100
H727        H  0.22752308  0.84055511  0.22482083     0.12100
H728        H  0.32813732  0.68609217  0.25739524     0.12100
C729        C  0.81605630  0.70416378  0.51206644    -0.14100
C730        C  0.81294738  0.75131172  0.50349363     0.08100
C731        C  0.75089148  0.79571889  0.99353287    -0.14100
C732        C  0.70324597  0.78781329  0.99704305    -0.14100
C733        C  0.70744447  0.74058857  0.00805842     0.08100
C734        C  0.76774647  0.69688572  0.51469967    -0.14100
H735        H  0.85577625  0.67283333  0.51662421     0.12100
H736        H  0.74609570  0.83254954  0.98495957     0.12100
H737        H  0.66304500  0.81882504  0.99102270     0.12100
H738        H  0.77146942  0.66013313  0.52114229     0.12100
C739        C  0.25660545  0.70345199  0.01244483    -0.14100
C740        C  0.20477459  0.74420565  0.00557363     0.08100
C741        C  0.21127345  0.78744511  0.49595954    -0.14100
C742        C  0.26085695  0.79299789  0.49445131    -0.14100
C743        C  0.31310969  0.75256445  0.50420156     0.08100
C744        C  0.30624466  0.70883801  0.01052142    -0.14100
H745        H  0.25891876  0.66718034  0.01916973     0.12100
H746        H  0.17183297  0.81930298  0.48816272     0.12100
H747        H  0.25812351  0.82908439  0.48540288     0.12100
H748        H  0.34525718  0.67665738  0.01584573     0.12100
C749        C  0.03507528  0.77095939  0.38890899    -0.14100
C750        C  0.98397898  0.78077616  0.40104812     0.08100
C751        C  0.94935351  0.75977779  0.38690201    -0.14100
C752        C  0.96554112  0.72942660  0.36102346    -0.14100
C753        C  0.01632518  0.72001124  0.34855849     0.08100
C754        C  0.05123173  0.74064534  0.36293780    -0.14100
H755        H  0.06298508  0.78601259  0.40000182     0.12100
H756        H  0.91043702  0.76567956  0.39660492     0.12100
H757        H  0.93755868  0.71443746  0.34993412     0.12100
H758        H  0.09003460  0.73483501  0.35309357     0.12100
C759        C  0.96624322  0.72887933  0.11190332    -0.14100
C760        C  0.01806420  0.72217255  0.10182946     0.08100
C761        C  0.04472176  0.75067449  0.11352291    -0.14100
C762        C  0.01991630  0.78538983  0.13481732    -0.14100
C763        C  0.96841957  0.79170903  0.14528444     0.08100
C764        C  0.94146782  0.76355592  0.13327231    -0.14100
H765        H  0.94421226  0.70810209  0.10241152     0.12100
H766        H  0.08367565  0.74745924  0.10499127     0.12100
H767        H  0.04205283  0.80606189  0.14437489     0.12100
H768        H  0.90265238  0.76662528  0.14196368     0.12100
O769        O  0.16481410  0.69237529  0.52094564    -0.81600
O770        O  0.91058855  0.72294008  0.50583570    -0.66300
O771        O  0.04428107  0.72020828  0.98948004    -1.12900
C772        C  0.98031912  0.88039234  0.00338506     1.05300
O773        O  0.84901910  0.80824350  0.98718244    -0.79500
O774        O  0.91789765  0.81924580  0.93966942    -0.67100
Ni775      Ni  0.11661832  0.65930047  0.52031664     1.34900
C776        C  0.96607662  0.80844243  0.93127496     0.84000
O777        O  0.99532693  0.66000986  0.48160382    -0.80100
O778        O  0.07813584  0.61722491  0.52021457    -0.90300
C779        C  0.85443887  0.76497000  0.99715374     0.83600
O780        O  0.09484293  0.67977236  0.56602652    -0.68500
O781        O  0.93661654  0.88253135  0.98274286    -0.87800
C782        C  0.04628043  0.68963504  0.57329380     0.84400
C783        C  0.03477410  0.61980016  0.49872610     1.06000
H784        H  0.96938670  0.77669428  0.54265326     0.37800
O785        O  0.97105357  0.77884394  0.51590028    -1.10500
O786        O  0.00459932  0.81308165  0.95271054    -0.67100
Ni787      Ni  0.03326794  0.78033131  0.00539606     1.26300
O788        O  0.00965041  0.68434764  0.55067388    -0.67400
O789        O  0.02003962  0.84044031  0.02070665    -0.79700
C790        C  0.16035850  0.73494291  0.50893458     0.83800
O791        O  0.10542440  0.77510441  0.99778790    -0.66800
Ni792      Ni  0.89784358  0.84083122  0.98519551     1.27400
Ni793      Ni  0.98191874  0.71918532  0.49856482     1.26100
H794        H  0.04744993  0.72143039  0.96293494     0.38300
O795        O  0.14997271  0.69454732  0.76196815    -0.81600
O796        O  0.89325379  0.72984905  0.75260426    -0.66300
O797        O  0.03672288  0.72020382  0.73626139    -1.12900
C798        C  0.97788898  0.87832840  0.75326476     1.05300
O799        O  0.84283143  0.80961594  0.73277440    -0.79500
O800        O  0.91340685  0.82021513  0.68683307    -0.67100
Ni801      Ni  0.10030298  0.66276005  0.76370368     1.34900
C802        C  0.96193493  0.80980966  0.67927433     0.84000
O803        O  0.97688215  0.66521006  0.72833619    -0.80100
O804        O  0.06044096  0.62187864  0.76580438    -0.90300
C805        C  0.84662738  0.76692849  0.74342114     0.83600
O806        O  0.08150197  0.68357562  0.80973202    -0.68500
O807        O  0.93341543  0.88187859  0.73241470    -0.87800
C808        C  0.03348329  0.69448762  0.81840475     0.84400
C809        C  0.01608348  0.62489453  0.74536322     1.06000
H810        H  0.95278511  0.78213011  0.78801160     0.37800
O811        O  0.95544784  0.78382754  0.76136773    -1.10500
O812        O  0.99920271  0.81446039  0.70175337    -0.67100
Ni813      Ni  0.02727966  0.77926126  0.75371260     1.26300
O814        O  0.99452146  0.69047570  0.79694384    -0.67400
O815        O  0.01610892  0.83782013  0.77078815    -0.79700
C816        C  0.14511241  0.73771994  0.75247082     0.83800
O817        O  0.09849815  0.77439152  0.74580457    -0.66800
Ni818      Ni  0.89286556  0.84120592  0.73273648     1.27400
Ni819      Ni  0.96517184  0.72444517  0.74459425     1.26100
H820        H  0.03886182  0.72220479  0.70957091     0.38300
O821        O  0.66854094  0.68655556  0.52313586    -0.81600
O822        O  0.41166369  0.72121689  0.50782460    -0.66300
O823        O  0.54930718  0.71356920  0.99288006    -1.12900
C824        C  0.48939964  0.87281682  0.00658959     1.05300
O825        O  0.35431115  0.80407258  0.99049136    -0.79500
O826        O  0.42324816  0.81402825  0.94302672    -0.67100
Ni827      Ni  0.61922257  0.65434401  0.52251354     1.34900
C828        C  0.47130774  0.80292272  0.93445492     0.84000
O829        O  0.49673293  0.65622136  0.48400413    -0.80100
O830        O  0.57999278  0.61302020  0.52228692    -0.90300
C831        C  0.35797540  0.76116545  0.99938338     0.83600
O832        O  0.59734132  0.67527879  0.56818251    -0.68500
O833        O  0.44493534  0.87595932  0.98612858    -0.87800
C834        C  0.54861659  0.68557144  0.57534910     0.84400
C835        C  0.53663058  0.61585606  0.50065376     1.06000
H836        H  0.47295750  0.77290263  0.54489834     0.37800
O837        O  0.47487500  0.77482061  0.51822842    -1.10500
O838        O  0.51057913  0.80618380  0.95614683    -0.67100
Ni839      Ni  0.53855753  0.77340905  0.00884060     1.26300
O840        O  0.51193872  0.68028786  0.55275968    -0.67400
O841        O  0.52714031  0.83260147  0.02478210    -0.79700
C842        C  0.66390484  0.72910765  0.51085570     0.83800
O843        O  0.60954073  0.76855245  0.00070820    -0.66800
Ni844      Ni  0.40424914  0.83550771  0.98863887     1.27400
Ni845      Ni  0.48413360  0.71553579  0.50076667     1.26100
H846        H  0.55253173  0.71486960  0.96631289     0.38300
O847        O  0.64542398  0.69903464  0.75709157    -0.81600
O848        O  0.39094216  0.73320304  0.74998621    -0.66300
O849        O  0.53271534  0.72492250  0.73246202    -1.12900
C850        C  0.46895241  0.88434491  0.74912116     1.05300
O851        O  0.33861726  0.81188721  0.72710541    -0.79500
O852        O  0.40973426  0.82351522  0.68200011    -0.67100
Ni853      Ni  0.59587226  0.66725189  0.75962786     1.34900
C854        C  0.45847943  0.81340304  0.67491893     0.84000
O855        O  0.47266197  0.66977787  0.72490182    -0.80100
O856        O  0.55548787  0.62650435  0.76280736    -0.90300
C857        C  0.34383192  0.76920121  0.73969821     0.83600
O858        O  0.57818615  0.68834524  0.80561217    -0.68500
O859        O  0.42588139  0.88674795  0.72739157    -0.87800
C860        C  0.53051910  0.69909872  0.81476384     0.84400
C861        C  0.51058338  0.62960380  0.74295598     1.06000
H862        H  0.44797019  0.78708235  0.78361234     0.37800
O863        O  0.45078236  0.78857234  0.75696821    -1.10500
O864        O  0.49485780  0.81920532  0.69741474    -0.67100
Ni865      Ni  0.52254545  0.78454779  0.74959858     1.26300
O866        O  0.49095023  0.69571301  0.79348273    -0.67400
O867        O  0.50898458  0.84417533  0.76600051    -0.79700
C868        C  0.64144859  0.74213295  0.74896908     0.83800
O869        O  0.59501160  0.77936749  0.74283179    -0.66800
Ni870      Ni  0.38731761  0.84479507  0.72743454     1.27400
Ni871      Ni  0.46146190  0.72882876  0.74095834     1.26100
H872        H  0.53505610  0.72654660  0.70586753     0.38300
O873        O  0.05856171  0.54039010  0.99943400    -0.75200
O874        O  0.03613007  0.92391116  0.00738808    -0.75200
O875        O  0.03708805  0.98810450  0.94771175    -0.75200
O876        O  0.06166427  0.97363973  0.55792664    -0.75300
O877        O  0.96922978  0.51654652  0.54921275    -0.75200
O878        O  0.94744681  0.52983621  0.94247539    -0.75200
O879        O  0.94363208  0.96572141  0.99934284    -0.75200
O880        O  0.97885648  0.57671739  0.49003137    -0.75200
Ni881      Ni  0.04813801  0.98153709  0.00317775     1.25400
Ni882      Ni  0.96659172  0.51905420  0.49424657     1.25400
C883        C  0.02812726  0.57488281  0.49708293     0.87000
C884        C  0.98695333  0.92543520  0.00397931     0.87000
C885        C  0.98815822  0.01064243  0.92636751     0.87000
C886        C  0.01572039  0.49461415  0.57345965     0.87100
O887        O  0.03637424  0.92021337  0.75711706    -0.75200
O888        O  0.05134576  0.54015953  0.74828203    -0.75200
O889        O  0.05162067  0.47460806  0.80655513    -0.75200
O890        O  0.03950880  0.98461790  0.69834115    -0.75300
O891        O  0.94070786  0.52933091  0.69111938    -0.75200
O892        O  0.95986037  0.51678199  0.80159657    -0.75200
O893        O  0.95911842  0.58210291  0.74199377    -0.75200
O894        O  0.94412490  0.96278309  0.74993509    -0.75200
Ni895      Ni  0.04954624  0.97776576  0.75344383     1.25400
Ni896      Ni  0.94673480  0.52447998  0.74601478     1.25400
C897        C  0.98674386  0.92237274  0.75408895     0.87000
C898        C  0.00840364  0.58038268  0.74457174     0.87000
C899        C  0.00929715  0.49426052  0.82223593     0.87000
C900        C  0.99099524  0.00681724  0.67673414     0.87100
O901        O  0.56812160  0.53228060  0.00666340    -0.75200
O902        O  0.54841996  0.91416566  0.01293427    -0.75200
O903        O  0.56153951  0.97460224  0.95603655    -0.75200
O904        O  0.56804280  0.96718722  0.56303162    -0.75300
O905        O  0.47490602  0.51114874  0.55139516    -0.75200
O906        O  0.46888091  0.51637396  0.94103147    -0.75200
O907        O  0.45593820  0.95771273  0.99894056    -0.75200
O908        O  0.48144923  0.57242487  0.49187521    -0.75200
Ni909      Ni  0.56221326  0.97148685  0.01000719     1.25400
Ni910      Ni  0.46973733  0.51469252  0.49611867     1.25400
C911        C  0.53056377  0.57082127  0.49850610     0.87000
C912        C  0.49852277  0.91686014  0.00664029     0.87000
C913        C  0.51648316  0.99511099  0.93076908     0.87000
C914        C  0.52205172  0.48906746  0.57508046     0.87100
O915        O  0.52385907  0.92768256  0.75922059    -0.75200
O916        O  0.54370519  0.54471290  0.75119860    -0.75200
O917        O  0.53036113  0.48614409  0.80928536    -0.75200
O918        O  0.53373035  0.98796256  0.70047764    -0.75300
O919        O  0.44128955  0.53217768  0.68722545    -0.75200
O920        O  0.43783540  0.52796605  0.79411410    -0.75200
O921        O  0.45124974  0.58839889  0.73727938    -0.75200
O922        O  0.43129751  0.97014681  0.74334224    -0.75200
Ni923      Ni  0.53616278  0.98508031  0.75561729     1.25400
Ni924      Ni  0.43722405  0.53116198  0.74016835     1.25400
C925        C  0.47478069  0.92951537  0.75130819     0.87000
C926        C  0.50122015  0.58560752  0.74339294     0.87000
C927        C  0.48284333  0.50741362  0.81940397     0.87000
C928        C  0.48740824  0.01028951  0.67595170     0.87100
C929        C  0.47766663  0.50958521  0.86040066    -0.17200
C930        C  0.52143564  0.49293834  0.88984253    -0.32300
H931        H  0.43566197  0.02590563  0.86645000     0.11900
H932        H  0.56339377  0.47615877  0.88387569     0.12400
C933        C  0.52655650  0.48732372  0.61732047    -0.17200
C934        C  0.48361201  0.51198940  0.63374839    -0.32300
H935        H  0.56771516  0.96459866  0.63571899     0.11900
H936        H  0.44303329  0.53399398  0.61549170     0.12400
C937        C  0.01943456  0.49055358  0.86476397    -0.17200
C938        C  0.97972681  0.51395619  0.88428707    -0.32300
H939        H  0.06170594  0.96785410  0.88136649     0.11900
H940        H  0.93744376  0.53622917  0.86860490     0.12400
C941        C  0.01917615  0.49262541  0.61558903    -0.17200
C942        C  0.97601003  0.51416530  0.63314645    -0.32300
H943        H  0.06890821  0.96892793  0.63249550     0.11900
H944        H  0.93427135  0.53476014  0.61610353     0.12400
C945        C  0.53619157  0.77034966  0.89055126    -0.14100
C946        C  0.48425827  0.78028754  0.90146793     0.08100
C947        C  0.44945102  0.76055961  0.88545851    -0.14100
C948        C  0.46639881  0.73113152  0.85906248    -0.14100
C949        C  0.51818929  0.72135103  0.84799677     0.08100
C950        C  0.55310159  0.74098235  0.86405298    -0.14100
H951        H  0.56419396  0.78451765  0.90302807     0.12100
H952        H  0.40983022  0.76666434  0.89412951     0.12100
H953        H  0.43836327  0.71695635  0.84664891     0.12100
H954        H  0.59267828  0.73489284  0.85531351     0.12100
C955        C  0.47810214  0.71958582  0.61524193    -0.14100
C956        C  0.53018252  0.71257340  0.60552305     0.08100
C957        C  0.55582616  0.74231630  0.61603741    -0.14100
C958        C  0.52936220  0.77901449  0.63529675    -0.14100
C959        C  0.47724154  0.78606988  0.64496660     0.08100
C960        C  0.45164424  0.75627543  0.63449737    -0.14100
H961        H  0.45686066  0.69782675  0.60664909     0.12100
H962        H  0.59500424  0.73881251  0.60774482     0.12100
H963        H  0.55057324  0.80080450  0.64386375     0.12100
H964        H  0.41243637  0.75980080  0.64274875     0.12100
C965        C  0.79490600  0.71410552  0.75058400    -0.14100
C966        C  0.79414048  0.76055830  0.74483079     0.08100
C967        C  0.74250567  0.80102818  0.74006812    -0.14100
C968        C  0.69296153  0.79518648  0.74116898    -0.14100
C969        C  0.69374356  0.74871142  0.74699863     0.08100
C970        C  0.74537701  0.70826723  0.75159609    -0.14100
H971        H  0.83379711  0.68215654  0.75414661     0.12100
H972        H  0.74031526  0.83736773  0.73565456     0.12100
H973        H  0.65408073  0.82713076  0.73764420     0.12100
H974        H  0.74766614  0.67189668  0.75606339     0.09300
C975        C  0.24887402  0.70634144  0.75651049    -0.14100
C976        C  0.19599033  0.74566599  0.74901915     0.08100
C977        C  0.19211350  0.79279872  0.73808473    -0.14100
C978        C  0.24000902  0.80042737  0.73482083    -0.14100
C979        C  0.29291022  0.76112839  0.74250302     0.08100
C980        C  0.29679121  0.71398345  0.75333197    -0.14100
H981        H  0.25335282  0.66958208  0.76492494     0.12100
H982        H  0.15202375  0.82393589  0.73205979     0.12100
H983        H  0.23555409  0.83719312  0.72648975     0.12100
H984        H  0.33690580  0.68286915  0.75938356     0.12100
C985        C  0.80816671  0.70936322  0.01212191    -0.14100
C986        C  0.80388935  0.75659650  0.00089284     0.08100
C987        C  0.76052040  0.79094504  0.49781683    -0.14100
C988        C  0.71229462  0.78367376  0.50032882    -0.14100
C989        C  0.71530111  0.73658369  0.50869353     0.08100
C990        C  0.76047690  0.70145730  0.01569755    -0.14100
H991        H  0.84839123  0.67838346  0.01810944     0.12100
H992        H  0.75657731  0.82775639  0.49128550     0.12100
H993        H  0.67261064  0.81505676  0.49573334     0.12100
H994        H  0.76516704  0.66464543  0.02419121     0.12100
C995        C  0.26500111  0.70093768  0.51730827    -0.14100
C996        C  0.21271434  0.74133471  0.50737480     0.08100
C997        C  0.20395065  0.79050109  0.99686935    -0.14100
C998        C  0.25360769  0.79589344  0.99501988    -0.14100
C999        C  0.30542259  0.75513389  0.00172420     0.08100
C1000       C  0.31453976  0.70647015  0.51568492    -0.14100
H1001       H  0.26778942  0.66481177  0.52625540     0.12100
H1002       H  0.16491668  0.82266320  0.99153711     0.12100
H1003       H  0.25127380  0.83216587  0.98825224     0.12100
H1004       H  0.35395505  0.67457913  0.52343990     0.12100
C1005       C  0.03220475  0.77453274  0.88838648    -0.14100
C1006       C  0.98054180  0.78355995  0.89948456     0.08100
C1007       C  0.94851978  0.76008175  0.88583436    -0.14100
C1008       C  0.96802990  0.72779452  0.86171601    -0.14100
C1009       C  0.01959070  0.71887432  0.85050881     0.08100
C1010       C  0.05168227  0.74228853  0.86419525    -0.14100
H1011       H  0.05814265  0.79155302  0.89911724     0.12100
H1012       H  0.90925993  0.76537193  0.89479087     0.12100
H1013       H  0.94205470  0.71080416  0.85098916     0.12100
H1014       H  0.09087111  0.73706048  0.85514718     0.12100
C1015       C  0.97632118  0.72236904  0.61401440    -0.14100
C1016       C  0.02835298  0.71536990  0.60419762     0.08100
C1017       C  0.05567718  0.74305768  0.61663652    -0.14100
C1018       C  0.03112078  0.77753874  0.63814394    -0.14100
C1019       C  0.97921695  0.78441126  0.64811006     0.08100
C1020       C  0.95181242  0.75679400  0.63563949    -0.14100
H1021       H  0.95383267  0.70218194  0.60400400     0.12100
H1022       H  0.09490370  0.73953881  0.60842108     0.12100
H1023       H  0.05362834  0.79774677  0.64808901     0.12100
H1024       H  0.91264802  0.76029585  0.64395266     0.12100
loop_ 
_geom_bond_atom_site_label_1 
_geom_bond_atom_site_label_2 
_geom_bond_distance 
_geom_bond_site_symmetry_2 
_ccdc_geom_bond_type 
O1           Ni7   1.931       .  S
O1           C22   1.275       .  A
O2          Ni25   1.893   1_554  S
O2          C267   1.266   1_554  A
O3           H26   0.964       .  S
O3          Ni19   1.922       .  S
O3         Ni263   1.923       .  S
O3         Ni281   1.909   1_455  S
C4           O21   1.268   1_655  A
C4           O13   1.274       .  A
C4          C116   1.464   1_655  S
O5          Ni24   1.930       .  S
O5           C11   1.274       .  A
O6          Ni24   1.896       .  S
O6            C8   1.271       .  A
Ni7          O10   1.946       .  S
Ni7          O12   1.909       .  S
Ni7         O259   1.923   1_554  S
C8           O18   1.273   1_655  A
C8          C238   1.460       .  S
O9          Ni25   1.901       .  S
O9           C15   1.267   1_655  A
O10          C15   1.278   1_554  A
C11         O258   1.266       .  A
C11         C218   1.480       .  S
O12          C14   1.269       .  A
O13         Ni24   1.935       .  S
C14          O20   1.267   1_455  A
C14         C248   1.463       .  S
C15         C115   1.466       .  S
H16          O17   0.962       .  S
O17         Ni25   1.931   1_554  S
O17        Ni275   1.914   1_655  S
O17        Ni280   1.924   1_554  S
O18         Ni19   1.927       .  S
Ni19         O23   1.906       .  S
Ni19         O21   1.905       .  S
Ni19        O273   1.913   1_455  S
O20         Ni25   1.921   1_554  S
C22         O279   1.272   1_554  A
C22         C228   1.487       .  S
O23         C278   1.271       .  A
Ni24        O273   1.922       .  S
Ni25        O259   1.909   1_655  S
O27         Ni33   1.919       .  S
O27          C48   1.272       .  A
O28         Ni51   1.910       .  S
O28          C37   1.272       .  A
O29          H52   0.961       .  S
O29         Ni33   1.923       .  S
O29         Ni51   1.912   1_455  S
O29         Ni45   1.938       .  S
C30          O47   1.271   1_655  A
C30          O39   1.276       .  A
C30         C129   1.467       .  S
O31         Ni50   1.925       .  S
O31          C37   1.274       .  A
O32         Ni50   1.907       .  S
O32          C34   1.269       .  A
Ni33         O36   1.931       .  S
Ni33         O38   1.893       .  S
C34          O44   1.267       .  A
C34         C251   1.464       .  S
O35         Ni51   1.907       .  S
O35          C41   1.269   1_655  A
O36          C41   1.271       .  A
C37         C198   1.485       .  S
O38          C40   1.270       .  A
O39         Ni50   1.940       .  S
C40          O46   1.273   1_455  A
C40         C241   1.460       .  S
C41         C130   1.464       .  S
H42          O43   0.964       .  S
O43         Ni51   1.926       .  S
O43         Ni45   1.909   1_655  S
O43         Ni50   1.925       .  S
O44         Ni45   1.922   1_655  S
Ni45         O49   1.903       .  S
Ni45         O47   1.907       .  S
O46         Ni51   1.927       .  S
C48          O49   1.269       .  A
C48         C208   1.480       .  S
O53         Ni59   1.934       .  S
O53          C74   1.274       .  A
O54         Ni77   1.913   1_554  S
O54         C319   1.274       .  A
O55          H78   0.965       .  S
O55         Ni71   1.920       .  S
O55        Ni315   1.927       .  S
O55        Ni333   1.911       .  S
C56          O73   1.264       .  A
C56          O65   1.274       .  A
C56         C144   1.465       .  S
O57         Ni76   1.926       .  S
O57          C63   1.274       .  A
O58         Ni76   1.890       .  S
O58          C60   1.269       .  A
Ni59         O62   1.939       .  S
Ni59         O64   1.910       .  S
Ni59        O311   1.927   1_554  S
C60          O70   1.273       .  A
C60         C178   1.459       .  S
O61         Ni77   1.910       .  S
O61          C67   1.273   1_556  A
O62          C67   1.276       .  A
C63         O310   1.273       .  A
C63         C231   1.488       .  S
O64          C66   1.271       .  A
O65         Ni76   1.940       .  S
C66          O72   1.268       .  A
C66         C188   1.465       .  S
C67         C143   1.468   1_554  S
H68          O69   0.960       .  S
O69         Ni77   1.936   1_554  S
O69        Ni327   1.909       .  S
O69        Ni332   1.919   1_554  S
O70         Ni71   1.926       .  S
Ni71         O75   1.893       .  S
Ni71         O73   1.900       .  S
Ni71        O325   1.910       .  S
O72         Ni77   1.923   1_554  S
C74         O331   1.265       .  A
C74         C221   1.481       .  S
O75         C330   1.266       .  A
Ni76        O325   1.919       .  S
Ni77        O311   1.912       .  S
O79         Ni85   1.924       .  S
O79         C100   1.274       .  A
O80        Ni103   1.895       .  S
O80          C89   1.268       .  A
O81         H104   0.960       .  S
O81         Ni85   1.920       .  S
O81        Ni103   1.911       .  S
O81         Ni97   1.940       .  S
C82          O99   1.274       .  A
C82          O91   1.275       .  A
C82         C157   1.466       .  S
O83        Ni102   1.928       .  S
O83          C89   1.273       .  A
O84        Ni102   1.910       .  S
O84          C86   1.270       .  A
Ni85         O88   1.939       .  S
Ni85         O90   1.891       .  S
C86          O96   1.267       .  A
C86         C191   1.465       .  S
O87        Ni103   1.901       .  S
O87          C93   1.265       .  A
O88          C93   1.274       .  A
C89         C211   1.479       .  S
O90          C92   1.269       .  A
O91        Ni102   1.936       .  S
C92          O98   1.273       .  A
C92         C181   1.459       .  S
C93         C158   1.464       .  S
H94          O95   0.965       .  S
O95        Ni103   1.919       .  S
O95         Ni97   1.910       .  S
O95        Ni102   1.926       .  S
O96         Ni97   1.922       .  S
Ni97        O101   1.910       .  S
Ni97         O99   1.911       .  S
O98        Ni103   1.926       .  S
C100        O101   1.273       .  A
C100        C201   1.485       .  S
O105       Ni625   1.910   1_545  S
O105        C371   1.278       .  A
O106       Ni113   1.921       .  S
O106        C116   1.281       .  A
O107       Ni113   1.929       .  S
O107        C117   1.282       .  A
O108       Ni369   1.938       .  S
O108        C630   1.285       .  A
O109       Ni114   1.935   1_554  S
O109        C118   1.283   1_645  A
O110       Ni370   1.920       .  S
O110        C629   1.280       .  A
O111       Ni882   1.910       .  S
O111        C116   1.279   1_655  A
O112       Ni114   1.925       .  S
O112        C115   1.283   1_655  A
Ni113       O617   1.921       .  S
Ni113       O364   1.918       .  S
Ni113      Ni882   2.387   1_455  S
Ni114       O366   1.924       .  S
Ni114       O879   1.925   1_545  S
Ni114      Ni881   2.387   1_646  S
C115        O361   1.279       .  A
C117        O622   1.288   1_455  A
C117        C682   1.500       .  S
C118        O620   1.286       .  A
C118        C173   1.496       .  S
O119       Ni127   1.914       .  S
O119        C129   1.279   1_455  A
O120       Ni639   1.926   1_545  S
O120        C130   1.284       .  A
O121       Ni639   1.919       .  S
O121        C131   1.280       .  A
O122       Ni127   1.956       .  S
O122        C132   1.289   1_455  A
O123       Ni128   1.941       .  S
O123        C644   1.287       .  A
O124       Ni128   1.952       .  S
O124        C131   1.289   1_645  A
O125       Ni128   1.907       .  S
O125        C130   1.277   1_655  A
O126       Ni640   1.922       .  S
O126        C129   1.283       .  A
Ni127       O632   1.910       .  S
Ni127       O633   1.950       .  S
Ni127      Ni640   2.387   1_455  S
Ni128       O638   1.909   1_545  S
Ni128      Ni639   2.387   1_645  S
C131        C169   1.496       .  S
C132        O635   1.280       .  A
C132        C686   1.496       .  S
O133       Ni653   1.926   1_545  S
O133        C399   1.284       .  A
O134       Ni141   1.926       .  S
O134        C144   1.283       .  A
O135       Ni141   1.927       .  S
O135        C145   1.281       .  A
O136       Ni397   1.913       .  S
O136        C658   1.278       .  A
O137       Ni142   1.962   1_554  S
O137        C146   1.291   1_545  A
O138       Ni398   1.952       .  S
O138        C657   1.289   1_545  A
O139       Ni910   1.908       .  S
O139        C144   1.278       .  A
O140       Ni142   1.908       .  S
O140        C143   1.277       .  A
Ni141       O645   1.925       .  S
Ni141       O392   1.917       .  S
Ni141      Ni910   2.387       .  S
Ni142       O394   1.956       .  S
Ni142       O907   1.907   1_545  S
Ni142      Ni909   2.386   1_546  S
C143        O389   1.285   1_556  A
C145        O650   1.289       .  A
C145        C674   1.501       .  S
C146        O648   1.278       .  A
C146        C165   1.499       .  S
O147       Ni155   1.908       .  S
O147        C157   1.277       .  A
O148       Ni667   1.908   1_545  S
O148        C158   1.278       .  A
O149       Ni667   1.952       .  S
O149        C159   1.289   1_565  A
O150       Ni155   1.958       .  S
O150        C160   1.291       .  A
O151       Ni156   1.919       .  S
O151        C672   1.279       .  A
O152       Ni156   1.929       .  S
O152        C159   1.282       .  A
O153       Ni156   1.925       .  S
O153        C158   1.283       .  A
O154       Ni668   1.926       .  S
O154        C157   1.284       .  A
Ni155       O660   1.908       .  S
Ni155       O661   1.953       .  S
Ni155      Ni668   2.387       .  S
Ni156       O666   1.925   1_545  S
Ni156      Ni667   2.387   1_545  S
C159        C161   1.502       .  S
C160        O663   1.279       .  A
C160        C678   1.499       .  S
C161        C162   1.351   1_545  D
C161        H675   1.086       .  S
C162        C657   1.502       .  S
C162        H164   1.086       .  S
H163        C673   1.086       .  S
C165        C166   1.347   1_565  D
C165        H679   1.087       .  S
C166        C672   1.500       .  S
C166        H168   1.086       .  S
H167        C677   1.087       .  S
C169        C170   1.347   1_465  D
C169        H683   1.086       .  S
C170        C629   1.496       .  S
C170        H172   1.086       .  S
H171        C681   1.086       .  S
C173        C174   1.355   1_465  D
C173        H687   1.086       .  S
C174        C644   1.497       .  S
C174        H176   1.086       .  S
H175        C685   1.086       .  S
C177        C178   1.403       .  A
C177        C182   1.388       .  A
C177        H183   1.083       .  S
C178        C179   1.402       .  A
C179        C180   1.387       .  A
C179        H184   1.083       .  S
C180        C181   1.402       .  A
C180        H185   1.083       .  S
C181        C182   1.403       .  A
C182        H186   1.083       .  S
C187        C188   1.405       .  A
C187        C192   1.391       .  A
C187        H193   1.083       .  S
C188        C189   1.403       .  A
C189        C190   1.391       .  A
C189        H194   1.083       .  S
C190        C191   1.405       .  A
C190        H195   1.083       .  S
C191        C192   1.403       .  A
C192        H196   1.083       .  S
C197        C198   1.405       .  A
C197        C202   1.399       .  A
C197        H203   1.083       .  S
C198        C199   1.408       .  A
C199        C200   1.397       .  A
C199        H204   1.083       .  S
C200        C201   1.404       .  A
C200        H205   1.083       .  S
C201        C202   1.409       .  A
C202        H206   1.083       .  S
C207        C208   1.406       .  A
C207        C212   1.394       .  A
C207        H213   1.083       .  S
C208        C209   1.405       .  A
C209        C210   1.397       .  A
C209        H214   1.083       .  S
C210        C211   1.407       .  A
C210        H215   1.083       .  S
C211        C212   1.404       .  A
C212        H216   1.083       .  S
C217        C218   1.407       .  A
C217        C222   1.396       .  A
C217        H223   1.083       .  S
C218        C475   1.405       .  A
C219        C220   1.397       .  A
C219        C474   1.405   1_556  A
C219        H224   1.083       .  S
C220        C221   1.407   1_556  A
C220        H225   1.083       .  S
C221        C478   1.404       .  A
C222        C477   1.405       .  A
C222        H226   1.083       .  S
C227        C228   1.409       .  A
C227        C232   1.400       .  A
C227        H233   1.083       .  S
C228        C485   1.405   1_554  A
C229        C230   1.398       .  A
C229        C484   1.405       .  A
C229        H234   1.083       .  S
C230        C231   1.408       .  A
C230        H235   1.083       .  S
C231        C488   1.406       .  A
C232        C487   1.406       .  A
C232        H236   1.083       .  S
C237        C238   1.402   1_455  A
C237        C242   1.388       .  A
C237        H243   1.083       .  S
C238        C239   1.403       .  A
C239        C240   1.389       .  A
C239        H244   1.083       .  S
C240        C241   1.403   1_655  A
C240        H245   1.083       .  S
C241        C242   1.403       .  A
C242        H246   1.083       .  S
C247        C248   1.405   1_655  A
C247        C252   1.390       .  A
C247        H253   1.083       .  S
C248        C249   1.402       .  A
C249        C250   1.391       .  A
C249        H254   1.083       .  S
C250        C251   1.406   1_455  A
C250        H255   1.083       .  S
C251        C252   1.402       .  A
C252        H256   1.083       .  S
O257       Ni263   1.934       .  S
O257        C278   1.276       .  A
O258       Ni281   1.893       .  S
O259        H282   0.963       .  S
O259       Ni275   1.926   1_556  S
C260        O277   1.269   1_655  A
C260        O269   1.274   1_554  A
C260        C372   1.464       .  S
O261       Ni280   1.932       .  S
O261        C267   1.274       .  A
O262       Ni280   1.901       .  S
O262        C264   1.271       .  A
Ni263       O266   1.947       .  S
Ni263       O268   1.911       .  S
C264        O274   1.272   1_655  A
C264        C494   1.462       .  S
O265       Ni281   1.901       .  S
O265        C271   1.268   1_655  A
O266        C271   1.278       .  A
C267        C474   1.481   1_556  S
O268        C270   1.269       .  A
O269       Ni280   1.937       .  S
C270        O276   1.266       .  A
C270        C504   1.464       .  S
C271        C371   1.466       .  S
H272        O273   0.961       .  S
O273       Ni281   1.934       .  S
O274       Ni275   1.925   1_556  S
Ni275       O279   1.909   1_554  S
Ni275       O277   1.904       .  S
O276       Ni281   1.921   1_455  S
C278        C484   1.487       .  S
O283       Ni289   1.926       .  S
O283        C304   1.273       .  A
O284       Ni307   1.912       .  S
O284        C293   1.273       .  A
O285        H308   0.961       .  S
O285       Ni289   1.924       .  S
O285       Ni307   1.912   1_455  S
O285       Ni301   1.932       .  S
C286        O303   1.268   1_655  A
C286        O295   1.277       .  A
C286        C385   1.467       .  S
O287       Ni306   1.929       .  S
O287        C293   1.275       .  A
O288       Ni306   1.910       .  S
O288        C290   1.270       .  A
Ni289       O292   1.935       .  S
Ni289       O294   1.899       .  S
C290        O300   1.267       .  A
C290        C507   1.464       .  S
O291       Ni307   1.906       .  S
O291        C297   1.270   1_655  A
O292        C297   1.273       .  A
C293        C454   1.488       .  S
O294        C296   1.271       .  A
O295       Ni306   1.946       .  S
C296        O302   1.272   1_455  A
C296        C497   1.462       .  S
C297        C386   1.464       .  S
H298        O299   0.963       .  S
O299       Ni307   1.928       .  S
O299       Ni301   1.910   1_655  S
O299       Ni306   1.924       .  S
O300       Ni301   1.921   1_655  S
Ni301       O305   1.896       .  S
Ni301       O303   1.903       .  S
O302       Ni307   1.925       .  S
C304        O305   1.267       .  A
C304        C464   1.479       .  S
O309       Ni315   1.933       .  S
O309        C330   1.274       .  A
O310       Ni333   1.913       .  S
O311        H334   0.964       .  S
O311       Ni327   1.922   1_556  S
C312        O329   1.264       .  A
C312        O321   1.276   1_554  A
C312        C400   1.465       .  S
O313       Ni332   1.927       .  S
O313        C319   1.275   1_556  A
O314       Ni332   1.894       .  S
O314        C316   1.269       .  A
Ni315       O318   1.941       .  S
Ni315       O320   1.911       .  S
C316        O326   1.271       .  A
C316        C434   1.460       .  S
O317       Ni333   1.908       .  S
O317        C323   1.273       .  A
O318        C323   1.277       .  A
C319        C487   1.488       .  S
O320        C322   1.270       .  A
O321       Ni332   1.944       .  S
C322        O328   1.268       .  A
C322        C444   1.465       .  S
C323        C399   1.467       .  S
H324        O325   0.959       .  S
O325       Ni333   1.938       .  S
O326       Ni327   1.925   1_556  S
Ni327       O331   1.891       .  S
Ni327       O329   1.898       .  S
O328       Ni333   1.923       .  S
C330        C477   1.480       .  S
O335       Ni341   1.928       .  S
O335        C356   1.275       .  A
O336       Ni359   1.891       .  S
O336        C345   1.266       .  A
O337        H360   0.960       .  S
O337       Ni341   1.920       .  S
O337       Ni359   1.910       .  S
O337       Ni353   1.938       .  S
C338        O355   1.274       .  A
C338        O347   1.276       .  A
C338        C413   1.467       .  S
O339       Ni358   1.932       .  S
O339        C345   1.274       .  A
O340       Ni358   1.910       .  S
O340        C342   1.270       .  A
Ni341       O344   1.945       .  S
Ni341       O346   1.896       .  S
C342        O352   1.268       .  A
C342        C447   1.465       .  S
O343       Ni359   1.899       .  S
O343        C349   1.264       .  A
O344        C349   1.276       .  A
C345        C467   1.479       .  S
O346        C348   1.270       .  A
O347       Ni358   1.937       .  S
C348        O354   1.271       .  A
C348        C437   1.460       .  S
C349        C414   1.466       .  S
H350        O351   0.964       .  S
O351       Ni359   1.920       .  S
O351       Ni353   1.912       .  S
O351       Ni358   1.927       .  S
O352       Ni353   1.923       .  S
Ni353       O357   1.914       .  S
Ni353       O355   1.910       .  S
O354       Ni359   1.924       .  S
C356        O357   1.274       .  A
C356        C457   1.489       .  S
O361       Ni881   1.911   1_546  S
O362       Ni369   1.915       .  S
O362        C372   1.280   1_455  A
O363       Ni369   1.950   1_556  S
O363        C373   1.288   1_455  A
O364        C886   1.280       .  A
O365       Ni370   1.930       .  S
O365        C374   1.283   1_645  A
O366        C885   1.281       .  A
O367       Ni626   1.918   1_554  S
O367        C372   1.281       .  A
O368       Ni370   1.927       .  S
O368        C371   1.283   1_655  A
Ni369       O873   1.918   1_554  S
Ni369      Ni626   2.387   1_454  S
Ni370       O623   1.927   1_545  S
Ni370      Ni625   2.387   1_645  S
C373        O878   1.282       .  A
C373        C938   1.499       .  S
C374        O876   1.287       .  A
C374        C429   1.497       .  S
O375       Ni383   1.919       .  S
O375        C385   1.281   1_455  A
O376       Ni895   1.924   1_545  S
O376        C386   1.283       .  A
O377       Ni895   1.924       .  S
O377        C387   1.281       .  A
O378       Ni383   1.935       .  S
O378        C388   1.285   1_455  A
O379       Ni384   1.937       .  S
O379        C900   1.286       .  A
O380       Ni384   1.948       .  S
O380        C387   1.288   1_645  A
O381       Ni384   1.908       .  S
O381        C386   1.278   1_655  A
O382       Ni896   1.919       .  S
O382        C385   1.281       .  A
Ni383       O888   1.918       .  S
Ni383       O889   1.927       .  S
Ni383      Ni896   2.387   1_455  S
Ni384       O894   1.911   1_545  S
Ni384      Ni895   2.388   1_645  S
C387        C425   1.497       .  S
C388        O891   1.285       .  A
C388        C942   1.500       .  S
O389       Ni909   1.928   1_545  S
O390       Ni397   1.928       .  S
O390        C400   1.284       .  A
O391       Ni397   1.923   1_556  S
O391        C401   1.280       .  A
O392        C914   1.279       .  A
O393       Ni398   1.957       .  S
O393        C402   1.291   1_545  A
O394        C913   1.290   1_545  A
O395       Ni654   1.906       .  S
O395        C400   1.277   1_556  A
O396       Ni398   1.909       .  S
O396        C399   1.278       .  A
Ni397       O901   1.928       .  S
Ni397      Ni654   2.387   1_554  S
Ni398       O651   1.908   1_545  S
Ni398      Ni653   2.386   1_545  S
C401        O906   1.290       .  A
C401        C930   1.502       .  S
C402        O904   1.279       .  A
C402        C421   1.499       .  S
O403       Ni411   1.907       .  S
O403        C413   1.276       .  A
O404       Ni923   1.907   1_545  S
O404        C414   1.277       .  A
O405       Ni923   1.956       .  S
O405        C415   1.290   1_565  A
O406       Ni411   1.962       .  S
O406        C416   1.292       .  A
O407       Ni412   1.914       .  S
O407        C928   1.278       .  A
O408       Ni412   1.924       .  S
O408        C415   1.281       .  A
O409       Ni412   1.928       .  S
O409        C414   1.284       .  A
O410       Ni924   1.928       .  S
O410        C413   1.285       .  A
Ni411       O916   1.906       .  S
Ni411       O917   1.957       .  S
Ni411      Ni924   2.386       .  S
Ni412       O922   1.928   1_545  S
Ni412      Ni923   2.386   1_545  S
C415        C417   1.501       .  S
C416        O919   1.278       .  A
C416        C934   1.498       .  S
C417        C418   1.349   1_545  D
C417        H931   1.086       .  S
C418        C913   1.501       .  S
C418        H420   1.086       .  S
H419        C929   1.086       .  S
C421        C422   1.347   1_565  D
C421        H935   1.086       .  S
C422        C928   1.498       .  S
C422        H424   1.087       .  S
H423        C933   1.086       .  S
C425        C426   1.349   1_465  D
C425        H939   1.086       .  S
C426        C885   1.497       .  S
C426        H428   1.086       .  S
H427        C937   1.086       .  S
C429        C430   1.355   1_465  D
C429        H943   1.086       .  S
C430        C900   1.496       .  S
C430        H432   1.086       .  S
H431        C941   1.087       .  S
C433        C434   1.403       .  A
C433        C438   1.388       .  A
C433        H439   1.083       .  S
C434        C435   1.402       .  A
C435        C436   1.388       .  A
C435        H440   1.083       .  S
C436        C437   1.403       .  A
C436        H441   1.083       .  S
C437        C438   1.402       .  A
C438        H442   1.083       .  S
C443        C444   1.405       .  A
C443        C448   1.391       .  A
C443        H449   1.083       .  S
C444        C445   1.403       .  A
C445        C446   1.392       .  A
C445        H450   1.083       .  S
C446        C447   1.405       .  A
C446        H451   1.083       .  S
C447        C448   1.403       .  A
C448        H452   1.083       .  S
C453        C454   1.405       .  A
C453        C458   1.400       .  A
C453        H459   1.083       .  S
C454        C455   1.409       .  A
C455        C456   1.400       .  A
C455        H460   1.083       .  S
C456        C457   1.405       .  A
C456        H461   1.083       .  S
C457        C458   1.409       .  A
C458        H462   1.083       .  S
C463        C464   1.405       .  A
C463        C468   1.395       .  A
C463        H469   1.083       .  S
C464        C465   1.406       .  A
C465        C466   1.397       .  A
C465        H470   1.083       .  S
C466        C467   1.405       .  A
C466        H471   1.083       .  S
C467        C468   1.406       .  A
C468        H472   1.083       .  S
C473        C474   1.407       .  A
C473        C478   1.396       .  A
C473        H479   1.083       .  S
C475        C476   1.397       .  A
C475        H480   1.083       .  S
C476        C477   1.407       .  A
C476        H481   1.083       .  S
C478        H482   1.083       .  S
C483        C484   1.408       .  A
C483        C488   1.401       .  A
C483        H489   1.083       .  S
C485        C486   1.399       .  A
C485        H490   1.083       .  S
C486        C487   1.409   1_556  A
C486        H491   1.083       .  S
C488        H492   1.083       .  S
C493        C494   1.404   1_455  A
C493        C498   1.389       .  A
C493        H499   1.083       .  S
C494        C495   1.402       .  A
C495        C496   1.389       .  A
C495        H500   1.083       .  S
C496        C497   1.404   1_655  A
C496        H501   1.083       .  S
C497        C498   1.403       .  A
C498        H502   1.083       .  S
C503        C504   1.406   1_655  A
C503        C508   1.391       .  A
C503        H509   1.083       .  S
C504        C505   1.402       .  A
C505        C506   1.391       .  A
C505        H510   1.083       .  S
C506        C507   1.406   1_455  A
C506        H511   1.083       .  S
C507        C508   1.402       .  A
C508        H512   1.083       .  S
O513       Ni519   1.928       .  S
O513        C534   1.275       .  A
O514       Ni537   1.894   1_554  S
O514        C779   1.266   1_554  A
O515        H538   0.964       .  S
O515       Ni775   1.924       .  S
O515       Ni793   1.908   1_455  S
O515       Ni531   1.925       .  S
C516        O533   1.270   1_655  A
C516        O525   1.272       .  A
C516        C628   1.465       .  S
O517       Ni536   1.922       .  S
O517        C523   1.273       .  A
O518       Ni536   1.893       .  S
O518        C520   1.271       .  A
Ni519       O522   1.945       .  S
Ni519       O524   1.909       .  S
Ni519       O771   1.924   1_554  S
C520        O530   1.273   1_655  A
C520        C750   1.461       .  S
O521       Ni537   1.902       .  S
O521        C527   1.268   1_655  A
O522        C527   1.277   1_554  A
C523        O770   1.268       .  A
C523        C730   1.480       .  S
O524        C526   1.269       .  A
O525       Ni536   1.932       .  S
C526        O532   1.267   1_455  A
C526        C760   1.464       .  S
C527        C627   1.466       .  S
H528        O529   0.961       .  S
O529       Ni537   1.932   1_554  S
O529       Ni787   1.914   1_655  S
O529       Ni792   1.924   1_554  S
O530       Ni531   1.927       .  S
Ni531       O535   1.911       .  S
Ni531       O533   1.909       .  S
Ni531       O785   1.913   1_455  S
O532       Ni537   1.922   1_554  S
C534        O791   1.273   1_554  A
C534        C740   1.488       .  S
O535        C790   1.273       .  A
Ni536       O785   1.923       .  S
Ni537       O771   1.909   1_655  S
O539       Ni545   1.928       .  S
O539        C560   1.274       .  A
O540       Ni563   1.905       .  S
O540        C549   1.271       .  A
O541        H564   0.961       .  S
O541       Ni545   1.922       .  S
O541       Ni563   1.913   1_455  S
O541       Ni557   1.933       .  S
C542        O559   1.268   1_655  A
C542        O551   1.278       .  A
C542        C641   1.465       .  S
O543       Ni562   1.934       .  S
O543        C549   1.276       .  A
O544       Ni562   1.911       .  S
O544        C546   1.270       .  A
Ni545       O548   1.935       .  S
Ni545       O550   1.895       .  S
C546        O556   1.266       .  A
C546        C763   1.464       .  S
O547       Ni563   1.904       .  S
O547        C553   1.267   1_655  A
O548        C553   1.274       .  A
C549        C710   1.487       .  S
O550        C552   1.270       .  A
O551       Ni562   1.946       .  S
C552        O558   1.273   1_455  A
C552        C753   1.460       .  S
C553        C642   1.464   1_455  S
H554        O555   0.964       .  S
O555       Ni563   1.923       .  S
O555       Ni557   1.910   1_655  S
O555       Ni562   1.923       .  S
O556       Ni557   1.921   1_655  S
Ni557       O561   1.895       .  S
Ni557       O559   1.901       .  S
O558       Ni563   1.927       .  S
C560        O561   1.267       .  A
C560        C720   1.480       .  S
O565       Ni571   1.933       .  S
O565        C586   1.274       .  A
O566       Ni589   1.914   1_554  S
O566        C831   1.274   1_554  A
O567        H590   0.965       .  S
O567       Ni827   1.927       .  S
O567       Ni845   1.911       .  S
O567       Ni583   1.920       .  S
C568        O585   1.265       .  A
C568        O577   1.274       .  A
C568        C656   1.465       .  S
O569       Ni588   1.923       .  S
O569        C575   1.274       .  A
O570       Ni588   1.890       .  S
O570        C572   1.269       .  A
Ni571       O574   1.938       .  S
Ni571       O576   1.911       .  S
Ni571       O823   1.928   1_554  S
C572        O582   1.273       .  A
C572        C690   1.459       .  S
O573       Ni589   1.910       .  S
O573        C579   1.273   1_556  A
O574        C579   1.276       .  A
C575        O822   1.273       .  A
C575        C743   1.485       .  S
O576        C578   1.271       .  A
O577       Ni588   1.938       .  S
C578        O584   1.268       .  A
C578        C700   1.465       .  S
C579        C655   1.466   1_554  S
H580        O581   0.960       .  S
O581       Ni589   1.936   1_554  S
O581       Ni839   1.909       .  S
O581       Ni844   1.919   1_554  S
O582       Ni583   1.926       .  S
Ni583       O587   1.894       .  S
Ni583       O585   1.901       .  S
Ni583       O837   1.910       .  S
O584       Ni589   1.923   1_554  S
C586        O843   1.266       .  A
C586        C733   1.480       .  S
O587        C842   1.267       .  A
Ni588       O837   1.919       .  S
Ni589       O823   1.913       .  S
O591       Ni597   1.927       .  S
O591        C612   1.275       .  A
O592       Ni615   1.894       .  S
O592        C601   1.267       .  A
O593        H616   0.959       .  S
O593       Ni597   1.919       .  S
O593       Ni615   1.912       .  S
O593       Ni609   1.940       .  S
C594        O611   1.273       .  A
C594        O603   1.276       .  A
C594        C669   1.466       .  S
O595       Ni614   1.931       .  S
O595        C601   1.274       .  A
O596       Ni614   1.910       .  S
O596        C598   1.270       .  A
Ni597       O600   1.942       .  S
Ni597       O602   1.891       .  S
C598        O608   1.268       .  A
C598        C703   1.465       .  S
O599       Ni615   1.900       .  S
O599        C605   1.264       .  A
O600        C605   1.275       .  A
C601        C723   1.480       .  S
O602        C604   1.269       .  A
O603       Ni614   1.939       .  S
C604        O610   1.273       .  A
C604        C693   1.459       .  S
C605        C670   1.467       .  S
H606        O607   0.965       .  S
O607       Ni615   1.918       .  S
O607       Ni609   1.910       .  S
O607       Ni614   1.926       .  S
O608       Ni609   1.923       .  S
Ni609       O613   1.911       .  S
Ni609       O611   1.908       .  S
O610       Ni615   1.925       .  S
C612        O613   1.272       .  A
C612        C713   1.488       .  S
O617        C883   1.282       .  A
O618       Ni625   1.908       .  S
O618        C628   1.277   1_455  A
O619       Ni625   1.952       .  S
O619        C629   1.289   1_465  A
O620       Ni881   1.937       .  S
O621       Ni626   1.935   1_554  S
O621        C630   1.285   1_655  A
O622       Ni882   1.950       .  S
O623        C628   1.284       .  A
O624       Ni626   1.918       .  S
O624        C627   1.281   1_655  A
Ni625       O876   1.941       .  S
Ni626       O878   1.927       .  S
C627        O873   1.280       .  A
C630        C685   1.500       .  S
O631       Ni639   1.926       .  S
O631        C641   1.283   1_455  A
O632        C642   1.279   1_455  A
O633        C643   1.288   1_455  A
O634       Ni639   1.930       .  S
O634        C644   1.283   1_465  A
O635       Ni640   1.918       .  S
O636       Ni640   1.928       .  S
O636        C643   1.282       .  A
O637       Ni640   1.922       .  S
O637        C642   1.282       .  A
O638        C641   1.278       .  A
C643        C681   1.500       .  S
O645        C911   1.284       .  A
O646       Ni653   1.925       .  S
O646        C656   1.283       .  A
O647       Ni653   1.929       .  S
O647        C657   1.282       .  A
O648       Ni909   1.915       .  S
O649       Ni654   1.962   1_554  S
O649        C658   1.292       .  A
O650       Ni910   1.953       .  S
O651        C656   1.278       .  A
O652       Ni654   1.907       .  S
O652        C655   1.277       .  A
Ni653       O904   1.920       .  S
Ni654       O906   1.957       .  S
C655        O901   1.285   1_556  A
C658        C677   1.498       .  S
O659       Ni667   1.909       .  S
O659        C669   1.277       .  A
O660        C670   1.278       .  A
O661        C671   1.289       .  A
O662       Ni667   1.957       .  S
O662        C672   1.291   1_565  A
O663       Ni668   1.917       .  S
O664       Ni668   1.927       .  S
O664        C671   1.281       .  A
O665       Ni668   1.927       .  S
O665        C670   1.284       .  A
O666        C669   1.284       .  A
C671        C673   1.501       .  S
C673        C674   1.350       .  D
C674        H676   1.086       .  S
C677        C678   1.346       .  D
C678        H680   1.086       .  S
C681        C682   1.351   1_655  D
C682        H684   1.086       .  S
C685        C686   1.351   1_455  D
C686        H688   1.087       .  S
C689        C690   1.403       .  A
C689        C694   1.388       .  A
C689        H695   1.083       .  S
C690        C691   1.402       .  A
C691        C692   1.387       .  A
C691        H696   1.083       .  S
C692        C693   1.403       .  A
C692        H697   1.083       .  S
C693        C694   1.403       .  A
C694        H698   1.083       .  S
C699        C700   1.405       .  A
C699        C704   1.391       .  A
C699        H705   1.083       .  S
C700        C701   1.403       .  A
C701        C702   1.391       .  A
C701        H706   1.083       .  S
C702        C703   1.405       .  A
C702        H707   1.083       .  S
C703        C704   1.403       .  A
C704        H708   1.083       .  S
C709        C710   1.406       .  A
C709        C714   1.399       .  A
C709        H715   1.083       .  S
C710        C711   1.408       .  A
C711        C712   1.401       .  A
C711        H716   1.083       .  S
C712        C713   1.407       .  A
C712        H717   1.083       .  S
C713        C714   1.408       .  A
C714        H718   1.083       .  S
C719        C720   1.405       .  A
C719        C724   1.396       .  A
C719        H725   1.083       .  S
C720        C721   1.406       .  A
C721        C722   1.396       .  A
C721        H726   1.083       .  S
C722        C723   1.405       .  A
C722        H727   1.083       .  S
C723        C724   1.406       .  A
C724        H728   1.083       .  S
C729        C730   1.406       .  A
C729        C734   1.398       .  A
C729        H735   1.083       .  S
C730        C987   1.406       .  A
C731        C986   1.405   1_556  A
C731        C732   1.395       .  A
C731        H736   1.083       .  S
C732        C733   1.407   1_556  A
C732        H737   1.083       .  S
C733        C990   1.405       .  A
C734        C989   1.406       .  A
C734        H738   1.083       .  S
C739        C740   1.409       .  A
C739        C744   1.400       .  A
C739        H745   1.083       .  S
C740        C997   1.405   1_554  A
C741        C996   1.404       .  A
C741        C742   1.399       .  A
C741        H746   1.083       .  S
C742        C743   1.409       .  A
C742        H747   1.083       .  S
C743       C1000   1.404       .  A
C744        C999   1.405       .  A
C744        H748   1.083       .  S
C749        C750   1.403   1_455  A
C749        C754   1.389       .  A
C749        H755   1.083       .  S
C750        C751   1.403       .  A
C751        C752   1.387       .  A
C751        H756   1.083       .  S
C752        C753   1.402   1_655  A
C752        H757   1.083       .  S
C753        C754   1.403       .  A
C754        H758   1.083       .  S
C759        C760   1.406   1_655  A
C759        C764   1.392       .  A
C759        H765   1.083       .  S
C760        C761   1.402       .  A
C761        C762   1.391       .  A
C761        H766   1.083       .  S
C762        C763   1.406   1_455  A
C762        H767   1.084       .  S
C763        C764   1.402       .  A
C764        H768   1.083       .  S
O769       Ni775   1.924       .  S
O769        C790   1.274       .  A
O770       Ni793   1.901       .  S
O771        H794   0.963       .  S
O771       Ni787   1.928   1_556  S
C772        O789   1.270   1_655  A
C772        O781   1.274   1_554  A
C772        C884   1.465       .  S
O773       Ni792   1.929       .  S
O773        C779   1.274       .  A
O774       Ni792   1.900       .  S
O774        C776   1.271       .  A
Ni775       O778   1.940       .  S
Ni775       O780   1.906       .  S
C776        O786   1.272   1_655  A
C776       C1006   1.462       .  S
O777       Ni793   1.906       .  S
O777        C783   1.270   1_655  A
O778        C783   1.276       .  A
C779        C986   1.480   1_556  S
O780        C782   1.269       .  A
O781       Ni792   1.936       .  S
C782        O788   1.267       .  A
C782       C1016   1.464       .  S
C783        C883   1.467       .  S
H784        O785   0.961       .  S
O785       Ni793   1.938       .  S
O786       Ni787   1.925   1_556  S
Ni787       O791   1.912   1_554  S
Ni787       O789   1.907       .  S
O788       Ni793   1.922   1_455  S
C790        C996   1.485       .  S
O795       Ni801   1.929       .  S
O795        C816   1.274       .  A
O796       Ni819   1.908       .  S
O796        C805   1.272       .  A
O797        H820   0.962       .  S
O797       Ni801   1.923       .  S
O797       Ni819   1.913   1_455  S
O797       Ni813   1.930       .  S
C798        O815   1.267   1_655  A
C798        O807   1.278       .  A
C798        C897   1.466       .  S
O799       Ni818   1.931       .  S
O799        C805   1.275       .  A
O800       Ni818   1.909       .  S
O800        C802   1.270       .  A
Ni801       O804   1.937       .  S
Ni801       O806   1.901       .  S
C802        O812   1.267       .  A
C802       C1019   1.463       .  S
O803       Ni819   1.904       .  S
O803        C809   1.269   1_655  A
O804        C809   1.274       .  A
C805        C966   1.487       .  S
O806        C808   1.271       .  A
O807       Ni818   1.946       .  S
C808        O814   1.272   1_455  A
C808       C1009   1.462       .  S
C809        C898   1.464       .  S
H810        O811   0.963       .  S
O811       Ni819   1.927       .  S
O811       Ni813   1.910   1_655  S
O811       Ni818   1.923       .  S
O812       Ni813   1.921   1_655  S
Ni813       O817   1.894       .  S
Ni813       O815   1.901       .  S
O814       Ni819   1.925       .  S
C816        O817   1.267       .  A
C816        C976   1.480       .  S
O821       Ni827   1.929       .  S
O821        C842   1.273       .  A
O822       Ni845   1.911       .  S
O823        H846   0.964       .  S
O823       Ni839   1.921   1_556  S
C824        O841   1.264       .  A
C824        O833   1.276   1_554  A
C824        C912   1.466       .  S
O825       Ni844   1.927       .  S
O825        C831   1.275       .  A
O826       Ni844   1.895       .  S
O826        C828   1.270       .  A
Ni827       O830   1.936       .  S
Ni827       O832   1.910       .  S
C828        O838   1.271       .  A
C828        C946   1.460       .  S
O829       Ni845   1.911       .  S
O829        C835   1.273       .  A
O830        C835   1.275       .  A
C831        C999   1.488   1_556  S
O832        C834   1.270       .  A
O833       Ni844   1.944       .  S
C834        O840   1.267       .  A
C834        C956   1.464       .  S
C835        C911   1.466       .  S
H836        O837   0.960       .  S
O837       Ni845   1.938       .  S
O838       Ni839   1.924   1_556  S
Ni839       O843   1.890       .  S
Ni839       O841   1.899       .  S
O840       Ni845   1.922       .  S
C842        C989   1.479       .  S
O847       Ni853   1.928       .  S
O847        C868   1.275       .  A
O848       Ni871   1.892       .  S
O848        C857   1.266       .  A
O849        H872   0.960       .  S
O849       Ni853   1.919       .  S
O849       Ni871   1.910       .  S
O849       Ni865   1.937       .  S
C850        O867   1.273       .  A
C850        O859   1.276       .  A
C850        C925   1.467       .  S
O851       Ni870   1.932       .  S
O851        C857   1.274       .  A
O852       Ni870   1.910       .  S
O852        C854   1.270       .  A
Ni853       O856   1.946       .  S
Ni853       O858   1.896       .  S
C854        O864   1.268       .  A
C854        C959   1.465       .  S
O855       Ni871   1.898       .  S
O855        C861   1.264       .  A
O856        C861   1.276       .  A
C857        C979   1.480       .  S
O858        C860   1.269       .  A
O859       Ni870   1.938       .  S
C860        O866   1.271       .  A
C860        C949   1.460       .  S
C861        C926   1.466       .  S
H862        O863   0.964       .  S
O863       Ni871   1.920       .  S
O863       Ni865   1.911       .  S
O863       Ni870   1.927       .  S
O864       Ni865   1.923       .  S
Ni865       O869   1.913       .  S
Ni865       O867   1.909       .  S
O866       Ni871   1.924       .  S
C868        O869   1.273       .  A
C868        C969   1.488       .  S
O874       Ni881   1.909       .  S
O874        C884   1.278   1_455  A
O875       Ni881   1.949   1_556  S
O875        C885   1.288   1_465  A
O877       Ni882   1.956       .  S
O877        C886   1.289   1_655  A
O879        C884   1.283   1_556  A
O880       Ni882   1.914       .  S
O880        C883   1.279   1_655  A
C886        C941   1.496       .  S
O887       Ni895   1.924       .  S
O887        C897   1.283   1_455  A
O888        C898   1.281       .  A
O889        C899   1.282       .  A
O890       Ni895   1.936       .  S
O890        C900   1.283   1_465  A
O891       Ni896   1.939       .  S
O892       Ni896   1.950       .  S
O892        C899   1.288   1_655  A
O893       Ni896   1.915       .  S
O893        C898   1.279   1_655  A
O894        C897   1.278       .  A
C899        C937   1.499       .  S
O902       Ni909   1.928       .  S
O902        C912   1.284       .  A
O903       Ni909   1.924   1_556  S
O903        C913   1.281       .  A
O905       Ni910   1.958       .  S
O905        C914   1.291       .  A
O907        C912   1.277   1_556  A
O908       Ni910   1.908       .  S
O908        C911   1.277       .  A
C914        C933   1.499       .  S
O915       Ni923   1.907       .  S
O915        C925   1.277       .  A
O916        C926   1.277       .  A
O917        C927   1.290       .  A
O918       Ni923   1.962       .  S
O918        C928   1.291   1_565  A
O919       Ni924   1.913       .  S
O920       Ni924   1.923       .  S
O920        C927   1.280       .  A
O921       Ni924   1.929       .  S
O921        C926   1.284       .  A
O922        C925   1.285       .  A
C927        C929   1.502       .  S
C929        C930   1.349       .  D
C930        H932   1.086       .  S
C933        C934   1.346       .  D
C934        H936   1.087       .  S
C937        C938   1.351   1_455  D
C938        H940   1.086       .  S
C941        C942   1.351   1_455  D
C942        H944   1.086       .  S
C945        C946   1.404       .  A
C945        C950   1.389       .  A
C945        H951   1.083       .  S
C946        C947   1.402       .  A
C947        C948   1.387       .  A
C947        H952   1.083       .  S
C948        C949   1.403       .  A
C948        H953   1.083       .  S
C949        C950   1.402       .  A
C950        H954   1.083       .  S
C955        C956   1.405       .  A
C955        C960   1.391       .  A
C955        H961   1.083       .  S
C956        C957   1.403       .  A
C957        C958   1.391       .  A
C957        H962   1.083       .  S
C958        C959   1.405       .  A
C958        H963   1.083       .  S
C959        C960   1.403       .  A
C960        H964   1.083       .  S
C965        C966   1.405       .  A
C965        C970   1.399       .  A
C965        H971   1.083       .  S
C966        C967   1.408       .  A
C967        C968   1.400       .  A
C967        H972   1.083       .  S
C968        C969   1.406       .  A
C968        H973   1.083       .  S
C969        C970   1.409       .  A
C970        H974   1.083       .  S
C975        C976   1.405       .  A
C975        C980   1.396       .  A
C975        H981   1.083       .  S
C976        C977   1.407       .  A
C977        C978   1.396       .  A
C977        H982   1.083       .  S
C978        C979   1.405       .  A
C978        H983   1.083       .  S
C979        C980   1.406       .  A
C980        H984   1.083       .  S
C985        C986   1.407       .  A
C985        C990   1.397       .  A
C985        H991   1.083       .  S
C987        C988   1.395       .  A
C987        H992   1.083       .  S
C988        C989   1.405       .  A
C988        H993   1.083       .  S
C990        H994   1.083       .  S
C995        C996   1.409       .  A
C995       C1000   1.398       .  A
C995       H1001   1.083       .  S
C997        C998   1.400       .  A
C997       H1002   1.083       .  S
C998        C999   1.409   1_556  A
C998       H1003   1.083       .  S
C1000      H1004   1.083       .  S
C1005      C1006   1.404   1_455  A
C1005      C1010   1.390       .  A
C1005      H1011   1.083       .  S
C1006      C1007   1.403       .  A
C1007      C1008   1.389       .  A
C1007      H1012   1.083       .  S
C1008      C1009   1.404   1_655  A
C1008      H1013   1.083       .  S
C1009      C1010   1.403       .  A
C1010      H1014   1.083       .  S
C1015      C1016   1.406   1_655  A
C1015      C1020   1.391       .  A
C1015      H1021   1.083       .  S
C1016      C1017   1.402       .  A
C1017      C1018   1.390       .  A
C1017      H1022   1.083       .  S
C1018      C1019   1.405   1_455  A
C1018      H1023   1.083       .  S
C1019      C1020   1.402       .  A
C1020      H1024   1.083       .  S
