geometry optimzed in LAMMPS
_audit_creation_date              2020-11-30 
_audit_creation_method            'lammps2cif' 
_symmetry_space_group_name_H-M    'P1' 
_symmetry_Int_Tables_number       1 
_symmetry_cell_setting            triclinic 
loop_ 
_symmetry_equiv_pos_as_xyz 
  x,y,z 
_cell_length_a                    35.48315316 
_cell_length_b                    27.307752749595245 
_cell_length_c                    34.00173820693687 
_cell_angle_alpha                 89.96906782866691 
_cell_angle_beta                  89.98811911410567 
_cell_angle_gamma                 90.01342480731947 
loop_ 
_atom_site_label 
_atom_site_type_symbol 
_atom_site_fract_x 
_atom_site_fract_y 
_atom_site_fract_z 
_atom_site_charge 
Zr1        Zr  0.58200401  0.30695933  0.19918308     2.17500
O2          O  0.54241770  0.24996393  0.23601584    -0.51200
O3          O  0.57839164  0.25368585  0.14165299    -0.74400
O4          O  0.51392773  0.32103225  0.18928061    -0.81100
O5          O  0.66539746  0.26066279  0.26247608    -0.82900
O6          O  0.50717858  0.39399105  0.15760970    -0.78500
O7          O  0.60791773  0.23926173  0.23800729    -0.90200
O8          O  0.61311310  0.28620365  0.09186249    -0.76100
O9          O  0.58611296  0.35182273  0.13928520    -0.85600
O10         O  0.64609774  0.30174856  0.17829322    -0.85300
O11         O  0.56340294  0.38897102  0.21642708    -0.72100
O12         O  0.62021173  0.34205489  0.25057264    -0.84200
Zr13       Zr  0.66637385  0.46800111  0.18501262     2.26400
Zr14       Zr  0.56758029  0.43326896  0.15546716     2.06300
Zr15       Zr  0.68441829  0.33780274  0.22869049     2.10000
Zr16       Zr  0.65046032  0.34901274  0.11966693     1.78800
O17         O  0.71361072  0.35248413  0.29239613    -0.93000
O18         O  0.63793560  0.37270672  0.05227044    -0.40800
O19         O  0.68485291  0.38606252  0.17045280    -0.77400
O20         O  0.63121397  0.43107495  0.13224405    -0.96100
O21         O  0.60314714  0.47062363  0.20651907    -0.89400
O22         O  0.66661815  0.42123799  0.24482595    -0.92300
C23         C  0.59073003  0.25466554  0.10615980     1.01500
C24         C  0.63731989  0.23066450  0.25911273     1.14400
C25         C  0.49402386  0.35512106  0.17329430     1.05200
O26         O  0.54296495  0.43012528  0.08864484    -0.94400
O27         O  0.58202871  0.50995879  0.12367169    -0.90200
O28         O  0.64391730  0.52597962  0.13542096    -0.83300
C29         C  0.61427011  0.03511056  0.11997986     1.11800
O30         O  0.57466823  0.37336868  0.31676250    -0.96400
Zr31       Zr  0.60241427  0.42477950  0.26574056     1.88900
O32         O  0.66076217  0.53202233  0.23459488    -0.73000
O33         O  0.52233410  0.49433483  0.17786818    -0.52300
O34         O  0.54106601  0.45691464  0.28539949    -0.97000
O35         O  0.63824573  0.44403161  0.99411610    -0.54200
O36         O  0.60776559  0.51292732  0.26784346    -0.73600
C37         C  0.63530313  0.04308897  0.25838440     0.98800
O38         O  0.71397160  0.52926398  0.16838593    -0.62400
O39         O  0.72745595  0.27132959  0.21138734    -0.57200
O40         O  0.73188869  0.44439105  0.18047787    -0.93900
O41         O  0.74542081  0.36735321  0.20106572    -0.92300
O42         O  0.69648358  0.28319314  0.11508312    -0.92600
O43         O  0.70464410  0.37567323  0.08108011    -0.91400
C44         C  0.75466590  0.40813204  0.18435358     1.17600
H45         H  0.65293856  0.26795261  0.17380073     0.33600
H46         H  0.63414344  0.44729069  0.10724005     0.44400
H47         H  0.68374879  0.43558601  0.26364301     0.37900
H48         H  0.53821630  0.39007108  0.22707599     0.34400
H49         H  0.64020250  0.34229438  0.03659399     0.26200
H50         H  0.50330517  0.49623023  0.15659880     0.32200
H51         H  0.54632566  0.47835085  0.30824006     0.38100
H52         H  0.68345240  0.25649049  0.10084902     0.32500
H53         H  0.71157899  0.24185116  0.20799835     0.31400
H54         H  0.73768648  0.36911509  0.28618493     0.33100
H55         H  0.61948855  0.46039629  0.01121580     0.32000
H56         H  0.72586866  0.37699391  0.09996311     0.36000
H57         H  0.71556263  0.52935446  0.13930638     0.28800
H58         H  0.52565842  0.23435125  0.21638288     0.33000
H59         H  0.56465297  0.39433851  0.00440001     0.35900
H60         H  0.73632970  0.27866445  0.18440683     0.28500
H61         H  0.70272741  0.56138841  0.17509125     0.41300
H62         H  0.54400194  0.39508923  0.08125357     0.32200
H63         H  0.61066379  0.37997480  0.05275512     0.39000
H64         H  0.65448153  0.46979290  0.31957227     0.30900
H65         H  0.50893856  0.47868040  0.20010006     0.30900
H66         H  0.52564966  0.27052296  0.25241323     0.31200
C67         C  0.58401642  0.13527865  0.03919811    -0.02300
C68         C  0.63640134  0.09157938  0.27995761     0.86700
C69         C  0.60439878  0.09730071  0.30933764    -0.53600
C70         C  0.60619322  0.13712995  0.00084531     0.09600
C71         C  0.64150647  0.16995888  0.99153225     0.20500
C72         C  0.63609466  0.13923063  0.25603070    -0.54300
C73         C  0.63909114  0.18107885  0.27838927     0.09700
C74         C  0.67176373  0.09413130  0.30466528    -0.53800
C75         C  0.67552127  0.13467148  0.32791056     0.10300
H76         H  0.58334616  0.06903471  0.31396812     0.14800
H77         H  0.64402570  0.20321707  0.01010560     0.00500
H78         H  0.63364710  0.13987600  0.22419335     0.15100
H79         H  0.69266847  0.06526297  0.30300857     0.14900
Zr80       Zr  0.88415408  0.24067097  0.03384493     2.17500
O81         O  0.92394556  0.29542434  0.07248760    -0.51200
O82         O  0.88885436  0.29321902  0.97560363    -0.74400
O83         O  0.95222592  0.22498428  0.02419671    -0.81100
O84         O  0.80067909  0.28765499  0.09699782    -0.82900
O85         O  0.95888406  0.15161945  0.99306490    -0.78500
O86         O  0.85830094  0.30881310  0.07262711    -0.90200
O87         O  0.85470930  0.26138249  0.25947334    -0.76100
O88         O  0.87994643  0.19570746  0.97405223    -0.85600
O89         O  0.82011161  0.24622226  0.01278182    -0.85300
O90         O  0.90208020  0.15841995  0.05084454    -0.72100
O91         O  0.84556520  0.20551891  0.08501846    -0.84200
Zr92       Zr  0.79904543  0.07982367  0.01966120     2.26400
Zr93       Zr  0.89799691  0.11402368  0.99001739     2.06300
Zr94       Zr  0.78137269  0.21053393  0.06313392     2.10000
Zr95       Zr  0.81579394  0.19983052  0.28723368     1.78800
O96         O  0.75034755  0.19560822  0.12593513    -0.93000
O97         O  0.82849750  0.17608870  0.21981040    -0.40800
O98         O  0.78124698  0.16205743  0.00515645    -0.77400
O99         O  0.83400033  0.11724686  0.29963331    -0.96100
O100        O  0.86223247  0.07671708  0.04093645    -0.89400
O101        O  0.79885258  0.12688120  0.07937297    -0.92300
C102        C  0.87650267  0.29353293  0.27390403     1.01500
C103        C  0.82882810  0.31761170  0.09368322     1.14400
C104        C  0.97209569  0.19046672  0.00868383     1.05200
O105        O  0.92481999  0.11561122  0.25736587    -0.94400
O106        O  0.88234391  0.03823765  0.29060721    -0.90200
O107        O  0.82038547  0.02256606  0.30232692    -0.83300
C108        C  0.85207968  0.01356675  0.28566464     1.11800
O109        O  0.89092918  0.17200980  0.15209811    -0.96400
Zr110      Zr  0.86309576  0.12260324  0.10000908     1.88900
O111        O  0.80466459  0.01580409  0.06928869    -0.73000
O112        O  0.94219629  0.05228955  0.01342112    -0.52300
O113        O  0.92525923  0.09181238  0.11810158    -0.97000
O114        O  0.82936650  0.10299847  0.16053818    -0.54200
O115        O  0.85852739  0.03436817  0.10097363    -0.73600
C116        C  0.83187378  0.00466168  0.09239246     0.98800
O117        O  0.75097155  0.01854513  0.33777295    -0.62400
O118        O  0.73942883  0.27843248  0.04625982    -0.57200
O119        O  0.73380068  0.10378739  0.01430934    -0.93900
O120        O  0.72068605  0.18120014  0.03425728    -0.92300
O121        O  0.77104205  0.26693659  0.28104511    -0.92600
O122        O  0.75987734  0.17443704  0.25103201    -0.91400
C123        C  0.71130845  0.14036437  0.01766870     1.17600
H124        H  0.81343424  0.28001683  0.00803382     0.33600
H125        H  0.83090054  0.10130593  0.27455375     0.44400
H126        H  0.78167044  0.11267118  0.09824232     0.37900
H127        H  0.92717821  0.15702581  0.06167500     0.34400
H128        H  0.82413628  0.20597760  0.20393747     0.26200
H129        H  0.96121744  0.04939353  0.99222155     0.32200
H130        H  0.92060372  0.06855726  0.13992615     0.38100
H131        H  0.78432152  0.29232019  0.26553357     0.32500
H132        H  0.75595282  0.30672729  0.04049875     0.31400
H133        H  0.72765372  0.17623312  0.11919518     0.33100
H134        H  0.84795052  0.08490774  0.17670647     0.32000
H135        H  0.75421871  0.14111692  0.26092792     0.36000
H136        H  0.74860451  0.01825335  0.30876689     0.28800
H137        H  0.94104490  0.31148063  0.05340345     0.33000
H138        H  0.90107973  0.14855548  0.17160525     0.35900
H139        H  0.72831265  0.27018178  0.02039537     0.28500
H140        H  0.76253588  0.98649788  0.34416693     0.41300
H141        H  0.92305980  0.15025527  0.24895138     0.31400
H142        H  0.85612994  0.17155913  0.21963922     0.39000
H143        H  0.81046727  0.07788455  0.15336842     0.30900
H144        H  0.95579419  0.06807282  0.03544834     0.30900
H145        H  0.94034585  0.27382853  0.08844520     0.31200
C146        C  0.88215155  0.41264843  0.20590893    -0.02300
C147        C  0.83024527  0.45701339  0.11444603     0.86700
C148        C  0.86243175  0.45081758  0.14350172    -0.53600
C149        C  0.86007497  0.41085294  0.16740031     0.09600
C150        C  0.82455919  0.37834759  0.15825945     0.20500
C151        C  0.83000238  0.40927416  0.09055822    -0.54300
C152        C  0.82699341  0.36739030  0.11293737     0.09700
C153        C  0.79509839  0.45505781  0.13954391    -0.53800
C154        C  0.79101355  0.41445891  0.16265921     0.10300
H155        H  0.88366186  0.47891140  0.14789409     0.14800
H156        H  0.82205774  0.34504585  0.17681291     0.00500
H157        H  0.83230068  0.40860775  0.05871282     0.15100
H158        H  0.77447430  0.48430701  0.13811385     0.14900
Zr159      Zr  0.38442735  0.05760513  0.34338389     2.17500
O160        O  0.42484823  0.00138086  0.30686837    -0.51200
O161        O  0.38915405  0.00445865  0.06716001    -0.74400
O162        O  0.45242152  0.07375241  0.35232338    -0.81100
O163        O  0.30104552  0.01000303  0.28060486    -0.82900
O164        O  0.45847591  0.14718319  0.04960991    -0.78500
O165        O  0.35932195  0.98994412  0.30378462    -0.90200
O166        O  0.35007249  0.03258699  0.11510716    -0.76100
O167        O  0.37999674  0.10296713  0.06929580    -0.85600
O168        O  0.32018837  0.05182940  0.03089653    -0.85300
O169        O  0.40209781  0.13980250  0.32592318    -0.72100
O170        O  0.34569362  0.09219780  0.29208979    -0.84200
Zr171      Zr  0.29839797  0.21817975  0.02301129     2.26400
Zr172      Zr  0.39747835  0.18477916  0.05253129     2.06300
Zr173      Zr  0.28146190  0.08716140  0.31418706     2.10000
Zr174      Zr  0.31578694  0.09953926  0.08924839     1.78800
O175        O  0.25161493  0.10086468  0.25061278    -0.93000
O176        O  0.33462967  0.12145559  0.15549055    -0.40800
O177        O  0.28082853  0.13595062  0.03843879    -0.77400
O178        O  0.33389095  0.18165065  0.07585820    -0.96100
O179        O  0.36192119  0.22128067  0.33559622    -0.89400
O180        O  0.29876847  0.17075400  0.29764823    -0.92300
C181        C  0.37547299  0.50291582  0.10220545     1.01500
C182        C  0.32945654  0.48097260  0.28291439     1.14400
C183        C  0.47186159  0.10807883  0.03454382     1.05200
O184        O  0.42362730  0.18435554  0.11874005    -0.94400
O185        O  0.38193252  0.26058924  0.08483737    -0.90200
O186        O  0.31983991  0.27571943  0.07339507    -0.83300
C187        C  0.35154713  0.28494500  0.08994815     1.11800
O188        O  0.39386493  0.12809517  0.22494447    -0.96400
Zr189      Zr  0.36299904  0.17514777  0.27665555     1.88900
O190        O  0.30506058  0.28274084  0.30810172    -0.73000
O191        O  0.44033590  0.24794565  0.36285396    -0.52300
O192        O  0.42492978  0.20695826  0.25852751    -0.97000
O193        O  0.32790927  0.19149207  0.21632435    -0.54200
O194        O  0.35789315  0.26332555  0.27479477    -0.73600
C195        C  0.33179873  0.29347176  0.28422220     0.98800
O196        O  0.25011336  0.27912613  0.03823475    -0.62400
O197        O  0.23940657  0.01943715  0.99797117    -0.57200
O198        O  0.23243673  0.19620273  0.02545452    -0.93900
O199        O  0.22020002  0.11641502  0.34214069    -0.92300
O200        O  0.26632321  0.03835539  0.09554263    -0.92600
O201        O  0.26454099  0.12907835  0.13065554    -0.91400
C202        C  0.21094234  0.15702391  0.35920590     1.17600
H203        H  0.31345951  0.01807290  0.03581106     0.33600
H204        H  0.33082767  0.19753976  0.10095114     0.44400
H205        H  0.28146172  0.18480895  0.27886507     0.37900
H206        H  0.42716669  0.14137183  0.31504278     0.34400
H207        H  0.32699120  0.09339113  0.17214829     0.26200
H208        H  0.46070477  0.24930819  0.04864340     0.32200
H209        H  0.42000186  0.23220267  0.23825559     0.38100
H210        H  0.27908265  0.00875309  0.10580189     0.32500
H211        H  0.25496262  0.99106081  0.33545193     0.31400
H212        H  0.22926622  0.12128704  0.25652768     0.33100
H213        H  0.34626246  0.20807654  0.19886769     0.32000
H214        H  0.24682584  0.14531947  0.11231204     0.36000
H215        H  0.24873265  0.28055998  0.06728286     0.28800
H216        H  0.44165741  0.98612656  0.32664126     0.33000
H217        H  0.40119789  0.15201343  0.20443132     0.35900
H218        H  0.22982816  0.02697825  0.02463575     0.28500
H219        H  0.26090233  0.31119308  0.03053771     0.41300
H220        H  0.42765915  0.14933546  0.12499569     0.31400
H221        H  0.36243303  0.11954682  0.15440462     0.39000
H222        H  0.30962042  0.21756209  0.22297765     0.30900
H223        H  0.45082537  0.23472661  0.33807031     0.30900
H224        H  0.44149150  0.02221904  0.29052475     0.31200
C225        C  0.38235768  0.38451660  0.17033240    -0.02300
C226        C  0.33069318  0.34183653  0.26234461     0.86700
C227        C  0.36279972  0.34747589  0.23310413    -0.53600
C228        C  0.36066875  0.38726389  0.20907188     0.09600
C229        C  0.32542977  0.42035081  0.21830746     0.20500
C230        C  0.33091730  0.38959151  0.28608392    -0.54300
C231        C  0.32799569  0.43135706  0.26360333     0.09700
C232        C  0.29538935  0.34422608  0.23745195    -0.53800
C233        C  0.29154270  0.38478644  0.21419897     0.10300
H234        H  0.38374109  0.31906063  0.22860588     0.14800
H235        H  0.32313818  0.45364381  0.19971368     0.00500
H236        H  0.33321525  0.39036204  0.31792860     0.15100
H237        H  0.27445564  0.31539172  0.23921521     0.14900
Zr238      Zr  0.08157825  0.49135411  0.17675267     2.17500
O239        O  0.04296950  0.04759339  0.13906049    -0.51200
O240        O  0.07825888  0.04469227  0.23437838    -0.74400
O241        O  0.01360747  0.47618336  0.18648180    -0.81100
O242        O  0.16575763  0.03845601  0.11349240    -0.82900
O243        O  0.00721870  0.40221231  0.21662991    -0.78500
O244        O  0.10817446  0.05948292  0.13794983    -0.90200
O245        O  0.11192018  0.01118014  0.28451128    -0.76100
O246        O  0.08552640  0.44632302  0.23664598    -0.85600
O247        O  0.14559415  0.49749439  0.19815151    -0.85300
O248        O  0.06385897  0.40904877  0.15932204    -0.72100
O249        O  0.12066953  0.45678867  0.12573022    -0.84200
Zr250      Zr  0.16737132  0.33125136  0.19111378     2.26400
Zr251      Zr  0.06812818  0.36454876  0.22017302     2.06300
Zr252      Zr  0.18476395  0.46184436  0.14819199     2.10000
Zr253      Zr  0.14969898  0.45006742  0.25675104     1.78800
O254        O  0.21571825  0.44720600  0.08535818    -0.93000
O255        O  0.13785388  0.42595552  0.32429103    -0.40800
O256        O  0.18508471  0.41348411  0.20632849    -0.77400
O257        O  0.13159607  0.36765693  0.24386951    -0.96100
O258        O  0.10427804  0.32778398  0.16931378    -0.89400
O259        O  0.16752837  0.37835756  0.13147535    -0.92300
C260        C  0.08998689  0.04319692  0.27010578     1.01500
C261        C  0.13754192  0.06824863  0.11681102     1.14400
C262        C  0.99387277  0.44137572  0.20165703     1.05200
O263        O  0.04270863  0.36685512  0.28668034    -0.94400
O264        O  0.08341020  0.28822131  0.25199011    -0.90200
O265        O  0.14557276  0.27313609  0.24099904    -0.83300
C266        C  0.11371496  0.26372164  0.25721052     1.11800
O267        O  0.07485906  0.42405767  0.05900714    -0.96400
Zr268      Zr  0.10341622  0.37386619  0.11028707     1.88900
O269        O  0.16158067  0.26668473  0.14176810    -0.73000
O270        O  0.02350249  0.30231210  0.19860162    -0.52300
O271        O  0.04220555  0.34130126  0.09065230    -0.97000
O272        O  0.13782543  0.35541654  0.04995933    -0.54200
O273        O  0.10870332  0.28568067  0.10842569    -0.73600
C274        C  0.13498763  0.25576966  0.11779701     0.98800
O275        O  0.21557562  0.27010669  0.20607581    -0.62400
O276        O  0.22812057  0.02751496  0.16658195    -0.57200
O277        O  0.23301606  0.35436870  0.19493901    -0.93900
O278        O  0.24549400  0.43272518  0.17695069    -0.92300
O279        O  0.19490189  0.01736527  0.26301155    -0.92600
O280        O  0.20521966  0.42484845  0.29365885    -0.91400
C281        C  0.25523828  0.39136686  0.19242404     1.17600
H282        H  0.15331462  0.03112459  0.20234379     0.33600
H283        H  0.13453119  0.35156361  0.26892344     0.44400
H284        H  0.18483831  0.36431937  0.11267190     0.37900
H285        H  0.03877139  0.40760071  0.14842935     0.34400
H286        H  0.14231057  0.45581054  0.34016097     0.26200
H287        H  0.00328390  0.30258511  0.21870541     0.32200
H288        H  0.04773302  0.31810848  0.06902144     0.38100
H289        H  0.18126095  0.04285137  0.27804403     0.32500
H290        H  0.21277246  0.05774004  0.16729373     0.31400
H291        H  0.23877111  0.42858224  0.09212845     0.33100
H292        H  0.11915451  0.33863435  0.03301413     0.32000
H293        H  0.21071128  0.39127804  0.28426710     0.36000
H294        H  0.21728955  0.26900587  0.23512643     0.28800
H295        H  0.02609818  0.06342486  0.15847066     0.33000
H296        H  0.06530449  0.40097297  0.03890936     0.35900
H297        H  0.23427047  0.02127670  0.19454106     0.28500
H298        H  0.20457477  0.23804480  0.19875671     0.41300
H299        H  0.04254842  0.40196722  0.29390221     0.31400
H300        H  0.11024570  0.42126880  0.32480320     0.39000
H301        H  0.15601842  0.32933680  0.05690649     0.30900
H302        H  0.01159875  0.31617238  0.17474546     0.30900
H303        H  0.02366551  0.52615656  0.12433290     0.31200
C304        C  0.08358960  0.16262105  0.33742113    -0.02300
C305        C  0.13636285  0.20736416  0.09595465     0.86700
C306        C  0.10435293  0.20157360  0.06658328    -0.53600
C307        C  0.10648866  0.16151378  0.04285196     0.09600
C308        C  0.14168876  0.12861977  0.05219221     0.20500
C309        C  0.13612020  0.15967901  0.11984339    -0.54300
C310        C  0.13914166  0.11783612  0.09749614     0.09700
C311        C  0.17173809  0.20485637  0.07113571    -0.53800
C312        C  0.17539683  0.16434713  0.04779691     0.10300
H313        H  0.08333867  0.22986169  0.06191032     0.14800
H314        H  0.14404733  0.09528075  0.03369043     0.00500
H315        H  0.13371255  0.15901598  0.15168347     0.15100
H316        H  0.19269239  0.23365317  0.07276337     0.14900
C317        C  0.10235521  0.19562525  0.30976415    -0.13100
C318        C  0.11146978  0.22481325  0.28507106    -0.14700
C319        C  0.08052621  0.08154879  0.29611074    -0.13100
C320        C  0.08060783  0.11568754  0.31805362    -0.14700
C321        C  0.38588108  0.43121663  0.15065879    -0.13100
C322        C  0.38572851  0.46489269  0.12822391    -0.14700
C323        C  0.35348795  0.32335477  0.11812099    -0.13100
C324        C  0.36282618  0.35209638  0.14296328    -0.14700
C325        C  0.92076563  0.43166344  0.20074053    -0.13100
C326        C  0.95361640  0.44297213  0.19991439    -0.14700
C327        C  0.86329110  0.44518723  0.23368139    -0.13100
C328        C  0.85417868  0.97500434  0.25760928    -0.14700
C329        C  0.88589097  0.33188035  0.24772085    -0.13100
C330        C  0.88552954  0.36568150  0.22534342    -0.14700
C331        C  0.01236238  0.19201058  0.01083497    -0.13100
C332        C  0.04532257  0.18119314  0.01007807    -0.14700
C333        C  0.51216526  0.10640548  0.03290994    -0.13100
C334        C  0.54516584  0.11705110  0.03387348    -0.14700
C335        C  0.60266759  0.10248048  0.06702943    -0.13100
C336        C  0.61196670  0.07367172  0.09188838    -0.14700
C337        C  0.58111246  0.18222618  0.05838681    -0.13100
C338        C  0.58122076  0.21635159  0.08026972    -0.14700
C339        C  0.42091194  0.36493656  0.17499291    -0.13100
C340        C  0.45374301  0.35337060  0.17526668    -0.14700
Zr341      Zr  0.58158864  0.30735447  0.53265987     2.17500
O342        O  0.54156467  0.25039914  0.56899643    -0.51200
O343        O  0.57643506  0.25523760  0.47431138    -0.74400
O344        O  0.51361807  0.32334250  0.52379680    -0.81100
O345        O  0.66438834  0.26101517  0.59701580    -0.82900
O346        O  0.50735204  0.39637267  0.49208753    -0.78500
O347        O  0.60745342  0.23926531  0.57138355    -0.90200
O348        O  0.61613059  0.28304778  0.42677507    -0.76100
O349        O  0.58607854  0.35236233  0.47284788    -0.85600
O350        O  0.64574100  0.30186067  0.51204891    -0.85300
O351        O  0.56372599  0.38961082  0.54997096    -0.72100
O352        O  0.61981160  0.34210776  0.58427632    -0.84200
Zr353      Zr  0.66704016  0.46802632  0.51962429     2.26400
Zr354      Zr  0.56833736  0.43408866  0.48911650     2.06300
Zr355      Zr  0.68415366  0.33746281  0.56267163     2.10000
Zr356      Zr  0.65045452  0.34929306  0.45352297     1.78800
O357        O  0.71535915  0.35114351  0.62551399    -0.93000
O358        O  0.63269016  0.37039527  0.38668533    -0.40800
O359        O  0.68482735  0.38592385  0.50462686    -0.77400
O360        O  0.63210727  0.43155653  0.46634269    -0.96100
O361        O  0.60366918  0.47102399  0.54064138    -0.89400
O362        O  0.66667882  0.42090145  0.57926909    -0.92300
C363        C  0.59124383  0.25396272  0.43982414     1.01500
C364        C  0.63650225  0.23082573  0.59312566     1.14400
C365        C  0.49393090  0.35777396  0.50798650     1.05200
O366        O  0.54412996  0.42871004  0.42220876    -0.94400
O367        O  0.58409040  0.51051543  0.45759439    -0.90200
O368        O  0.64605739  0.52598478  0.46939877    -0.83300
C369        C  0.61337902  0.03469421  0.45255665     1.11800
O370        O  0.57298730  0.37566612  0.65114319    -0.96400
Zr371      Zr  0.60231128  0.42490064  0.59969079     1.88900
O372        O  0.65975873  0.53316905  0.56811820    -0.73000
O373        O  0.52298188  0.49651646  0.50861702    -0.52300
O374        O  0.54029151  0.45710995  0.61695388    -0.97000
O375        O  0.63697077  0.44276790  0.32612676    -0.54200
O376        O  0.60790472  0.51292677  0.60287412    -0.73600
C377        C  0.63352427  0.04333339  0.59233708     0.98800
O378        O  0.71599919  0.52851513  0.50556566    -0.62400
O379        O  0.72626246  0.26982762  0.54583370    -0.57200
O380        O  0.73277593  0.44522367  0.51594790    -0.93900
O381        O  0.74483475  0.36662862  0.53366849    -0.92300
O382        O  0.69881492  0.28643782  0.44894768    -0.92600
O383        O  0.70332055  0.37798207  0.41399815    -0.91400
C384        C  0.75472819  0.40792581  0.51813342     1.17600
H385        H  0.65253516  0.26807714  0.50739434     0.33600
H386        H  0.63538034  0.44760057  0.44131108     0.44400
H387        H  0.68379385  0.43494860  0.59825129     0.37900
H388        H  0.53860124  0.39118441  0.56068805     0.34400
H389        H  0.64121935  0.34255583  0.37029714     0.26200
H390        H  0.50456329  0.49781084  0.48673738     0.32200
H391        H  0.54493031  0.48065114  0.63856163     0.38100
H392        H  0.68561698  0.25679643  0.43940421     0.32500
H393        H  0.71008391  0.24058496  0.54269721     0.31400
H394        H  0.73817398  0.37034524  0.61889211     0.33100
H395        H  0.61809203  0.45820737  0.34363291     0.32000
H396        H  0.72360242  0.38504550  0.43318263     0.36000
H397        H  0.71760106  0.53040374  0.47653129     0.28800
H398        H  0.52421315  0.23594015  0.54935533     0.33000
H399        H  0.56372693  0.39599012  0.33640745     0.35900
H400        H  0.73528398  0.27669206  0.51883642     0.28500
H401        H  0.70545812  0.56059724  0.51349863     0.41300
H402        H  0.56463320  0.44158993  0.40537054     0.32200
H403        H  0.60490093  0.36758920  0.38704539     0.39000
H404        H  0.65467668  0.46772696  0.65426728     0.30900
H405        H  0.50885650  0.48195079  0.53083159     0.30900
H406        H  0.52543994  0.27096307  0.58608178     0.31200
C407        C  0.58430329  0.13551652  0.37153082    -0.02300
C408        C  0.63505356  0.09168785  0.61409359     0.86700
C409        C  0.60326925  0.09770083  0.64358559    -0.53600
C410        C  0.60659031  0.13726039  0.33314204     0.09600
C411        C  0.64174487  0.17028868  0.32369928     0.20500
C412        C  0.63487426  0.13936756  0.59020606    -0.54300
C413        C  0.63820084  0.18120002  0.61251423     0.09700
C414        C  0.67060577  0.09379908  0.63865142    -0.53800
C415        C  0.67485337  0.13434003  0.66181990     0.10300
H416        H  0.58218160  0.06950283  0.64833413     0.14800
H417        H  0.64412835  0.20362694  0.34219663     0.00500
H418        H  0.63220143  0.14003326  0.55839134     0.15100
H419        H  0.69130535  0.06466095  0.63689601     0.14900
Zr420      Zr  0.88410504  0.24091089  0.36692972     2.17500
O421        O  0.92498470  0.29648534  0.40356665    -0.51200
O422        O  0.88808959  0.29508574  0.30969514    -0.74400
O423        O  0.95196754  0.22488213  0.35685445    -0.81100
O424        O  0.80053508  0.28757347  0.43018179    -0.82900
O425        O  0.95837220  0.15162107  0.32553260    -0.78500
O426        O  0.85862935  0.30812594  0.40674064    -0.90200
O427        O  0.85091538  0.26488423  0.59358535    -0.76100
O428        O  0.87992234  0.19600523  0.30709926    -0.85600
O429        O  0.82004831  0.24684993  0.34597772    -0.85300
O430        O  0.90193401  0.15858099  0.38379153    -0.72100
O431        O  0.84557875  0.20575006  0.41819674    -0.84200
Zr432      Zr  0.79882862  0.08025119  0.35254262     2.26400
Zr433      Zr  0.89751804  0.11408856  0.32309428     2.06300
Zr434      Zr  0.78135664  0.21067502  0.39611572     2.10000
Zr435      Zr  0.81606830  0.19872025  0.61978928     1.78800
O436        O  0.74946659  0.19550081  0.45839992    -0.93000
O437        O  0.83485836  0.17923396  0.55295816    -0.40800
O438        O  0.78138603  0.16261068  0.33801102    -0.77400
O439        O  0.83423671  0.11622332  0.63235854    -0.96100
O440        O  0.86193053  0.07671361  0.37398965    -0.89400
O441        O  0.79884884  0.12704648  0.41237674    -0.92300
C442        C  0.87517943  0.29443965  0.60716070     1.01500
C443        C  0.82895312  0.31713770  0.42736295     1.14400
C444        C  0.97168256  0.19041131  0.34113174     1.05200
O445        O  0.92417070  0.11631245  0.58952797    -0.94400
O446        O  0.88293625  0.03747470  0.62346700    -0.90200
O447        O  0.82119692  0.02113536  0.63590703    -0.83300
C448        C  0.85283303  0.01233159  0.61901682     1.11800
O449        O  0.89412219  0.17151889  0.48357374    -0.96400
Zr450      Zr  0.86312306  0.12270167  0.43304521     1.88900
O451        O  0.80466628  0.01564611  0.40168220    -0.73000
O452        O  0.94026646  0.05258373  0.34956262    -0.52300
O453        O  0.92444683  0.08967085  0.45184037    -0.97000
O454        O  0.82888554  0.10603708  0.49379470    -0.54200
O455        O  0.85778737  0.03446101  0.43466828    -0.73600
C456        C  0.83144740  0.00459295  0.42534898     0.98800
O457        O  0.75052578  0.01868119  0.67031145    -0.62400
O458        O  0.73852920  0.27715082  0.37810437    -0.57200
O459        O  0.73345836  0.10371419  0.34802317    -0.93900
O460        O  0.72103117  0.18197218  0.36622943    -0.92300
O461        O  0.76787668  0.26162601  0.61371497    -0.92600
O462        O  0.76371496  0.16926082  0.57994355    -0.91400
C463        C  0.71138881  0.14083054  0.35035450     1.17600
H464        H  0.81332607  0.28069767  0.34153771     0.33600
H465        H  0.83112113  0.10007933  0.60736216     0.44400
H466        H  0.78170612  0.11280046  0.43126345     0.37900
H467        H  0.92705578  0.15703892  0.39456051     0.34400
H468        H  0.82451029  0.20601806  0.53653559     0.26200
H469        H  0.95978835  0.04836079  0.32902144     0.32200
H470        H  0.91916589  0.06688014  0.47383066     0.38100
H471        H  0.78113746  0.29091634  0.60354169     0.32500
H472        H  0.75413347  0.30710974  0.37657772     0.31400
H473        H  0.72701327  0.17585768  0.45128469     0.33100
H474        H  0.84767079  0.09012202  0.51113835     0.32000
H475        H  0.75613077  0.13798661  0.59239934     0.36000
H476        H  0.74922457  0.01712370  0.64124943     0.28800
H477        H  0.94185562  0.31172715  0.38382956     0.33000
H478        H  0.90155542  0.14830066  0.50454593     0.35900
H479        H  0.73133754  0.27091439  0.35041575     0.28500
H480        H  0.76122454  0.98664501  0.67818161     0.41300
H481        H  0.92575917  0.15158503  0.58298448     0.31400
H482        H  0.86238880  0.18486802  0.55300702     0.39000
H483        H  0.81096332  0.07942334  0.48741382     0.30900
H484        H  0.95348418  0.06915933  0.37146555     0.30900
H485        H  0.94152483  0.27534435  0.41975475     0.31200
C486        C  0.88167757  0.41310975  0.53929908    -0.02300
C487        C  0.83011054  0.45645124  0.44747752     0.86700
C488        C  0.86207219  0.45071134  0.47680411    -0.53600
C489        C  0.85972318  0.41093492  0.50082449     0.09600
C490        C  0.82444072  0.37807494  0.49165897     0.20500
C491        C  0.83023557  0.40857931  0.42383888    -0.54300
C492        C  0.82714009  0.36688968  0.44642235     0.09700
C493        C  0.79470680  0.45431772  0.47229657    -0.53800
C494        C  0.79076065  0.41393548  0.49575379     0.10300
H495        H  0.88315768  0.47896652  0.48128612     0.14800
H496        H  0.82199596  0.34488416  0.51034997     0.00500
H497        H  0.83275525  0.40767107  0.39201336     0.15100
H498        H  0.77388410  0.48326361  0.47048709     0.14900
Zr499      Zr  0.38461602  0.05695634  0.67604285     2.17500
O500        O  0.42479201  0.00137066  0.63863996    -0.51200
O501        O  0.38935638  0.00469865  0.40128493    -0.74400
O502        O  0.45254237  0.07272042  0.68646673    -0.81100
O503        O  0.30098700  0.01015864  0.61305377    -0.82900
O504        O  0.45881877  0.14698106  0.38363979    -0.78500
O505        O  0.35917228  0.98980796  0.63634621    -0.90200
O506        O  0.35175876  0.03427872  0.44993004    -0.76100
O507        O  0.38018000  0.10271184  0.40316023    -0.85600
O508        O  0.32037948  0.05169002  0.36450576    -0.85300
O509        O  0.40228209  0.13919544  0.65869475    -0.72100
O510        O  0.34576972  0.09203706  0.62502011    -0.84200
Zr511      Zr  0.29881057  0.21795752  0.35724416     2.26400
Zr512      Zr  0.39780955  0.18445962  0.38660149     2.06300
Zr513      Zr  0.28155841  0.08687412  0.64701135     2.10000
Zr514      Zr  0.31595473  0.09923229  0.42299531     1.78800
O515        O  0.25100188  0.09981378  0.58370534    -0.93000
O516        O  0.33148476  0.12025086  0.49032349    -0.40800
O517        O  0.28110670  0.13573186  0.37218086    -0.77400
O518        O  0.33431069  0.18154259  0.41011997    -0.96100
O519        O  0.36192256  0.22100434  0.66869244    -0.89400
O520        O  0.29874508  0.17057435  0.63078403    -0.92300
C521        C  0.37594055  0.50463162  0.43657045     1.01500
C522        C  0.32881841  0.48129412  0.61602953     1.14400
C523        C  0.47217508  0.10828529  0.36789780     1.05200
O524        O  0.42478126  0.18207615  0.45242289    -0.94400
O525        O  0.38245232  0.26035944  0.41890349    -0.90200
O526        O  0.32051226  0.27610908  0.40705530    -0.83300
C527        C  0.35223710  0.28518749  0.42365916     1.11800
O528        O  0.39213417  0.12687868  0.55763874    -0.96400
Zr529      Zr  0.36293542  0.17501785  0.60971606     1.88900
O530        O  0.30532501  0.28274477  0.64218641    -0.73000
O531        O  0.43970150  0.24658523  0.69298149    -0.52300
O532        O  0.42473053  0.20711376  0.59156737    -0.97000
O533        O  0.32793123  0.19207748  0.54949677    -0.54200
O534        O  0.35764541  0.26329578  0.60799251    -0.73600
C535        C  0.33174507  0.29351564  0.61794260     0.98800
O536        O  0.24976214  0.27831789  0.37110123    -0.62400
O537        O  0.23886819  0.02028727  0.33182655    -0.57200
O538        O  0.23374283  0.19317861  0.36322903    -0.93900
O539        O  0.22068685  0.11607670  0.67553318    -0.92300
O540        O  0.26770572  0.03623409  0.42755714    -0.92600
O541        O  0.26409382  0.12809694  0.46388308    -0.91400
C542        C  0.21131765  0.15706920  0.69187770     1.17600
H543        H  0.31375599  0.01785665  0.36918903     0.33600
H544        H  0.33125994  0.19755907  0.43517338     0.44400
H545        H  0.28139541  0.18471727  0.61207858     0.37900
H546        H  0.42742932  0.14056827  0.64796755     0.34400
H547        H  0.32519348  0.09086856  0.50611441     0.26200
H548        H  0.46177646  0.24761879  0.38150454     0.32200
H549        H  0.41976990  0.23101776  0.57027957     0.38100
H550        H  0.28131116  0.00619120  0.43554981     0.32500
H551        H  0.25459483  0.99041298  0.66663632     0.31400
H552        H  0.22759713  0.11792024  0.59001790     0.33100
H553        H  0.34641271  0.20845398  0.53206111     0.32000
H554        H  0.24302604  0.13396930  0.44537623     0.36000
H555        H  0.24796250  0.27982255  0.40012449     0.28800
H556        H  0.44130371  0.98527333  0.65825121     0.33000
H557        H  0.40158163  0.15071737  0.53803140     0.35900
H558        H  0.22982941  0.02773494  0.35871624     0.28500
H559        H  0.26046894  0.31048473  0.36357043     0.41300
H560        H  0.42493164  0.14696395  0.45969893     0.31400
H561        H  0.35931979  0.12126790  0.48994506     0.39000
H562        H  0.30984805  0.21835123  0.55624875     0.30900
H563        H  0.45197788  0.23105322  0.67002202     0.30900
H564        H  0.44174387  0.02256356  0.62295791     0.31200
C565        C  0.38200633  0.38575414  0.50422155    -0.02300
C566        C  0.33026558  0.34191837  0.59608070     0.86700
C567        C  0.36208664  0.34766007  0.56653381    -0.53600
C568        C  0.35965239  0.38743094  0.54252655     0.09600
C569        C  0.32433411  0.42021492  0.55181819     0.20500
C570        C  0.33047593  0.38986730  0.61965275    -0.54300
C571        C  0.32719479  0.43150709  0.59702024     0.09700
C572        C  0.29475853  0.34394102  0.57149809    -0.53800
C573        C  0.29062080  0.38431204  0.54808037     0.10300
H574        H  0.38328082  0.31955438  0.56206546     0.14800
H575        H  0.32172414  0.45333745  0.53307466     0.00500
H576        H  0.33309714  0.39086720  0.65146533     0.15100
H577        H  0.27399908  0.31488408  0.57342866     0.14900
Zr578      Zr  0.08141145  0.49039775  0.50985984     2.17500
O579        O  0.04175870  0.04630619  0.47264348    -0.51200
O580        O  0.07672778  0.04346730  0.56758497    -0.74400
O581        O  0.01333861  0.47547558  0.51925104    -0.81100
O582        O  0.16514220  0.03761287  0.44668425    -0.82900
O583        O  0.00666826  0.40197278  0.55015350    -0.78500
O584        O  0.10737518  0.05822608  0.47088622    -0.90200
O585        O  0.11282079  0.01213075  0.61677416    -0.76100
O586        O  0.08534731  0.44549913  0.56980487    -0.85600
O587        O  0.14551733  0.49598148  0.53088675    -0.85300
O588        O  0.06339130  0.40824550  0.49253271    -0.72100
O589        O  0.11998409  0.45527882  0.45858860    -0.84200
Zr590      Zr  0.16639252  0.32980457  0.52429762     2.26400
Zr591      Zr  0.06738954  0.36384435  0.55342782     2.06300
Zr592      Zr  0.18419343  0.46006280  0.48061588     2.10000
Zr593      Zr  0.14963862  0.44880664  0.58959198     1.78800
O594        O  0.21505889  0.44611190  0.41762553    -0.93000
O595        O  0.13741450  0.42690298  0.65748712    -0.40800
O596        O  0.18421063  0.41200878  0.53880822    -0.77400
O597        O  0.13081390  0.36653430  0.57700705    -0.96100
O598        O  0.10328531  0.32662868  0.50268414    -0.89400
O599        O  0.16671303  0.37646340  0.46437637    -0.92300
C600        C  0.08969494  0.04299961  0.60288097     1.01500
C601        C  0.13679621  0.06720102  0.44984129     1.14400
C602        C  0.99347892  0.44098636  0.53476668     1.05200
O603        O  0.04185500  0.36613156  0.61989248    -0.94400
O604        O  0.08252033  0.28728162  0.58514854    -0.90200
O605        O  0.14451243  0.27155188  0.57376217    -0.83300
C606        C  0.11271806  0.26244343  0.59011103     1.11800
O607        O  0.07465880  0.42183085  0.39125680    -0.96400
Zr608      Zr  0.10248025  0.37232183  0.44344134     1.88900
O609        O  0.16098625  0.26596196  0.47432311    -0.73000
O610        O  0.02292731  0.30234181  0.53025647    -0.52300
O611        O  0.04061990  0.34114178  0.42457391    -0.97000
O612        O  0.13645414  0.35253061  0.38308190    -0.54200
O613        O  0.10682132  0.28394819  0.44294744    -0.73600
C614        C  0.13379525  0.25456866  0.45121122     0.98800
O615        O  0.21455531  0.26891221  0.53998933    -0.62400
O616        O  0.22712480  0.02888249  0.49770956    -0.57200
O617        O  0.23136319  0.35451300  0.53086016    -0.93900
O618        O  0.24528445  0.43063102  0.50850920    -0.92300
O619        O  0.19662272  0.01299521  0.59485654    -0.92600
O620        O  0.20379890  0.41989006  0.62696472    -0.91400
C621        C  0.25429600  0.39043350  0.52629708     1.17600
H622        H  0.15219399  0.03009346  0.53613259     0.33600
H623        H  0.13369254  0.35036993  0.60204292     0.44400
H624        H  0.18391850  0.36218766  0.44558135     0.37900
H625        H  0.03828989  0.40697627  0.48168977     0.34400
H626        H  0.14244852  0.45697980  0.67288976     0.26200
H627        H  0.00323738  0.30083066  0.55088172     0.32200
H628        H  0.04563633  0.31747273  0.40314385     0.38100
H629        H  0.18307773  0.04125709  0.60635676     0.32500
H630        H  0.21089559  0.05803573  0.50108983     0.31400
H631        H  0.23627598  0.42381270  0.42373286     0.33100
H632        H  0.11767752  0.33537115  0.36650801     0.32000
H633        H  0.20832482  0.38623299  0.61720513     0.36000
H634        H  0.21626267  0.26832612  0.56906182     0.28800
H635        H  0.02378422  0.06037498  0.49185047     0.33000
H636        H  0.06400993  0.39853336  0.37192684     0.35900
H637        H  0.23637020  0.02195692  0.52461119     0.28500
H638        H  0.20351098  0.23676443  0.53300718     0.41300
H639        H  0.04077288  0.40134389  0.62671900     0.31400
H640        H  0.10972645  0.42319307  0.65795903     0.39000
H641        H  0.15473053  0.32664190  0.39023047     0.30900
H642        H  0.01026972  0.31759887  0.50738884     0.30900
H643        H  0.02507881  0.52437169  0.45551381     0.31200
C644        C  0.08376584  0.16171797  0.67096827    -0.02300
C645        C  0.13521285  0.20636076  0.42910770     0.86700
C646        C  0.10309105  0.20039693  0.39996399    -0.53600
C647        C  0.10546535  0.16055669  0.37600665     0.09600
C648        C  0.14083452  0.12777255  0.38522809     0.20500
C649        C  0.13535247  0.15862190  0.45292070    -0.54300
C650        C  0.13835387  0.11684073  0.43052485     0.09700
C651        C  0.17043765  0.20430320  0.40398719    -0.53800
C652        C  0.17453038  0.16359001  0.38090780     0.10300
H653        H  0.08198659  0.22861981  0.39545052     0.14800
H654        H  0.14324948  0.09444390  0.36672295     0.00500
H655        H  0.13309114  0.15788066  0.48477042     0.15100
H656        H  0.19110264  0.23347620  0.40545116     0.14900
C657        C  0.10194910  0.19454810  0.64287127    -0.13100
C658        C  0.11057973  0.22357437  0.61792480    -0.14700
C659        C  0.08022613  0.08110386  0.62915730    -0.13100
C660        C  0.08064789  0.11470846  0.65166650    -0.14700
C661        C  0.38529661  0.43272798  0.48498372    -0.13100
C662        C  0.38564956  0.46654314  0.46270783    -0.14700
C663        C  0.35439266  0.32405604  0.45146868    -0.13100
C664        C  0.36346193  0.35305637  0.47626170    -0.14700
C665        C  0.92034032  0.43184041  0.53404759    -0.13100
C666        C  0.95324146  0.44281769  0.53304112    -0.14700
C667        C  0.86277763  0.44580409  0.56694443    -0.13100
C668        C  0.85493437  0.97340836  0.59121206    -0.14700
C669        C  0.88498464  0.33260656  0.58115357    -0.13100
C670        C  0.88492184  0.36632656  0.55879881    -0.14700
C671        C  0.01190504  0.19192348  0.34310420    -0.13100
C672        C  0.04482059  0.18099904  0.34251402    -0.14700
C673        C  0.51243130  0.10694468  0.36556683    -0.13100
C674        C  0.54541645  0.11764595  0.36605087    -0.14700
C675        C  0.60251369  0.10223836  0.39937348    -0.13100
C676        C  0.61124817  0.07324229  0.42435757    -0.14700
C677        C  0.58152481  0.18235328  0.39110332    -0.13100
C678        C  0.58149993  0.21599009  0.41356050    -0.14700
C679        C  0.42073771  0.36729624  0.50962628    -0.13100
C680        C  0.45368040  0.35643982  0.51021021    -0.14700
Zr681      Zr  0.58238066  0.30754891  0.86708883     2.17500
O682        O  0.54225152  0.25046331  0.90313175    -0.51200
O683        O  0.57744621  0.25469540  0.80930760    -0.74400
O684        O  0.51440194  0.32326431  0.85760381    -0.81100
O685        O  0.66585918  0.26002433  0.93006705    -0.82900
O686        O  0.50810670  0.39614938  0.82570868    -0.78500
O687        O  0.60782244  0.23983920  0.90635823    -0.90200
O688        O  0.61593893  0.28339367  0.76107181    -0.76100
O689        O  0.58654209  0.35267141  0.80733516    -0.85600
O690        O  0.64643403  0.30188256  0.84594238    -0.85300
O691        O  0.56438770  0.38966034  0.88464216    -0.72100
O692        O  0.62102199  0.34189733  0.91852500    -0.84200
Zr693      Zr  0.66753174  0.46793284  0.85342414     2.26400
Zr694      Zr  0.56879966  0.43435276  0.82386752     2.06300
Zr695      Zr  0.68519908  0.33715548  0.89648700     2.10000
Zr696      Zr  0.65072830  0.34950138  0.78743277     1.78800
O697        O  0.71577837  0.35027356  0.95978887    -0.93000
O698        O  0.63253735  0.36968993  0.72054605    -0.40800
O699        O  0.68518442  0.38582382  0.83857032    -0.77400
O700        O  0.63225518  0.43169315  0.80036729    -0.96100
O701        O  0.60444799  0.47080709  0.87511001    -0.89400
O702        O  0.66782061  0.42070176  0.91311915    -0.92300
C703        C  0.59161834  0.25381163  0.77455297     1.01500
C704        C  0.63737368  0.23062826  0.92708646     1.14400
C705        C  0.49472346  0.35747960  0.84146200     1.05200
O706        O  0.54320792  0.43374425  0.75740846    -0.94400
O707        O  0.58417410  0.51081710  0.79227317    -0.90200
O708        O  0.64631415  0.52592946  0.80328081    -0.83300
C709        C  0.61483776  0.03405325  0.78560040     1.11800
O710        O  0.57724637  0.37231249  0.98540040    -0.96400
Zr711      Zr  0.60359369  0.42463512  0.93412614     1.88900
O712        O  0.66079978  0.53253892  0.90233696    -0.73000
O713        O  0.52492734  0.49648920  0.84713352    -0.52300
O714        O  0.54160189  0.45434247  0.95413777    -0.97000
O715        O  0.63676680  0.44101238  0.66045130    -0.54200
O716        O  0.60792400  0.51303573  0.93565239    -0.73600
C717        C  0.63429023  0.04322930  0.92583051     0.98800
O718        O  0.71588244  0.52946088  0.84008537    -0.62400
O719        O  0.72748292  0.27014467  0.87849717    -0.57200
O720        O  0.73246303  0.44283736  0.84704037    -0.93900
O721        O  0.74621756  0.36617718  0.86825479    -0.92300
O722        O  0.69983893  0.28779004  0.78168326    -0.92600
O723        O  0.70292113  0.37926202  0.74740613    -0.91400
C724        C  0.75527810  0.40667312  0.85094869     1.17600
H725        H  0.65319460  0.26813220  0.84110302     0.33600
H726        H  0.63527613  0.44774081  0.77530962     0.44400
H727        H  0.68506782  0.43477448  0.93196431     0.37900
H728        H  0.53923427  0.39105776  0.89533283     0.34400
H729        H  0.64059845  0.34140576  0.70437570     0.26200
H730        H  0.50480323  0.49754418  0.82695408     0.32200
H731        H  0.54651370  0.47639597  0.97667615     0.38100
H732        H  0.68720792  0.25883780  0.77014848     0.32500
H733        H  0.71142021  0.24076644  0.87550452     0.31400
H734        H  0.73772659  0.37141458  0.95381864     0.33100
H735        H  0.61803996  0.45662353  0.67802993     0.32000
H736        H  0.71484337  0.40528611  0.76341029     0.36000
H737        H  0.71859709  0.53018748  0.81110913     0.28800
H738        H  0.52508942  0.23592801  0.88334489     0.33000
H739        H  0.56288648  0.39913210  0.67065953     0.35900
H740        H  0.73591369  0.27732945  0.85134494     0.28500
H741        H  0.70436853  0.56148127  0.84659870     0.41300
H742        H  0.54387975  0.39896328  0.74926162     0.32200
H743        H  0.60472304  0.36758264  0.72108644     0.39000
H744        H  0.65608928  0.47047120  0.98703846     0.30900
H745        H  0.51274432  0.48175595  0.87049498     0.30900
H746        H  0.52594644  0.27097742  0.92006520     0.31200
C747        C  0.58423294  0.13542442  0.70616584    -0.02300
C748        C  0.63574333  0.09149203  0.94762191     0.86700
C749        C  0.60383339  0.09727195  0.97700446    -0.53600
C750        C  0.60584403  0.13760927  0.66742764     0.09600
C751        C  0.64118155  0.17029579  0.65782482     0.20500
C752        C  0.63561085  0.13924053  0.92382550    -0.54300
C753        C  0.63884599  0.18096559  0.94627102     0.09700
C754        C  0.67118286  0.09364285  0.97232713    -0.53800
C755        C  0.67518289  0.13413307  0.99561372     0.10300
H756        H  0.58271021  0.06908215  0.98160342     0.14800
H757        H  0.64382702  0.20360876  0.67631552     0.00500
H758        H  0.63311960  0.14003240  0.89199617     0.15100
H759        H  0.69197861  0.06462773  0.97057082     0.14900
Zr760      Zr  0.88442878  0.24025712  0.69958158     2.17500
O761        O  0.92519233  0.29547384  0.73677380    -0.51200
O762        O  0.88930025  0.29347134  0.64193710    -0.74400
O763        O  0.95233424  0.22426250  0.69038729    -0.81100
O764        O  0.80121690  0.28728629  0.76278712    -0.82900
O765        O  0.95872068  0.15102902  0.65909904    -0.78500
O766        O  0.85912913  0.30802709  0.73896093    -0.90200
O767        O  0.85223677  0.26239778  0.92657621    -0.76100
O768        O  0.88025317  0.19549177  0.63964234    -0.85600
O769        O  0.82038705  0.24593042  0.67849125    -0.85300
O770        O  0.90212355  0.15789157  0.71648567    -0.72100
O771        O  0.84580384  0.20522204  0.75071792    -0.84200
Zr772      Zr  0.79893999  0.07954065  0.68534362     2.26400
Zr773      Zr  0.89782977  0.11358626  0.65565910     2.06300
Zr774      Zr  0.78162638  0.21022501  0.72882630     2.10000
Zr775      Zr  0.81571307  0.19870269  0.95428504     1.78800
O776        O  0.75137260  0.19527340  0.79205282    -0.93000
O777        O  0.82995611  0.17600370  0.88693531    -0.40800
O778        O  0.78137362  0.16193663  0.67067683    -0.77400
O779        O  0.83439578  0.11648658  0.96682391    -0.96100
O780        O  0.86213226  0.07631836  0.70664283    -0.89400
O781        O  0.79897508  0.12653231  0.74504946    -0.92300
C782        C  0.87574210  0.29289250  0.94034178     1.01500
C783        C  0.82962225  0.31693344  0.75988609     1.14400
C784        C  0.97204407  0.18970730  0.67484526     1.05200
O785        O  0.92353449  0.11858121  0.92355766    -0.94400
O786        O  0.88315706  0.03767897  0.95802943    -0.90200
O787        O  0.82124083  0.02176398  0.96993757    -0.83300
C788        C  0.85295763  0.01278473  0.95326998     1.11800
O789        O  0.89137698  0.17261853  0.81707718    -0.96400
Zr790      Zr  0.86322207  0.12229706  0.76571713     1.88900
O791        O  0.80488621  0.01546392  0.73516051    -0.73000
O792        O  0.94209469  0.05185777  0.67882894    -0.52300
O793        O  0.92545969  0.09175126  0.78391440    -0.97000
O794        O  0.82919665  0.10413244  0.82633341    -0.54200
O795        O  0.85857283  0.03407398  0.76723617    -0.73600
C796        C  0.83188824  0.00442029  0.75862230     0.98800
O797        O  0.75091452  0.01862843  0.00459777    -0.62400
O798        O  0.73917253  0.27711601  0.71095924    -0.57200
O799        O  0.73364597  0.10377892  0.68011361    -0.93900
O800        O  0.72065966  0.18109591  0.70044324    -0.92300
O801        O  0.76794066  0.26231205  0.94963093    -0.92600
O802        O  0.76198056  0.17008309  0.91616183    -0.91400
C803        C  0.71117939  0.14038915  0.68369836     1.17600
H804        H  0.81360208  0.27970957  0.67382134     0.33600
H805        H  0.83135122  0.10042885  0.94178633     0.44400
H806        H  0.78185794  0.11233901  0.76399867     0.37900
H807        H  0.92718948  0.15628669  0.72736964     0.34400
H808        H  0.82512391  0.20576672  0.87106704     0.26200
H809        H  0.96246401  0.05146808  0.65889984     0.32200
H810        H  0.92078059  0.06745002  0.80497944     0.38100
H811        H  0.78089802  0.29051505  0.93729422     0.32500
H812        H  0.75509552  0.30670504  0.70851391     0.31400
H813        H  0.72807249  0.17703414  0.78553352     0.33100
H814        H  0.84819778  0.08853691  0.84360681     0.32000
H815        H  0.75674759  0.13683165  0.92646014     0.36000
H816        H  0.74935229  0.01748583  0.97553786     0.28800
H817        H  0.94289265  0.30997788  0.71747368     0.33000
H818        H  0.90157776  0.14955145  0.83684888     0.35900
H819        H  0.73117368  0.27029394  0.68361105     0.28500
H820        H  0.76190823  0.98660044  0.01203280     0.41300
H821        H  0.92445468  0.15398941  0.91732380     0.31400
H822        H  0.85768165  0.17241503  0.88702185     0.39000
H823        H  0.81160619  0.07720126  0.81981396     0.30900
H824        H  0.95385030  0.06639876  0.70249749     0.30900
H825        H  0.94089613  0.27418957  0.75373677     0.31200
C826        C  0.88246763  0.41192792  0.87285844    -0.02300
C827        C  0.83086558  0.45618637  0.78112881     0.86700
C828        C  0.86266966  0.45042076  0.81064625    -0.53600
C829        C  0.86037710  0.41033843  0.83436062     0.09600
C830        C  0.82521915  0.37732816  0.82473279     0.20500
C831        C  0.83124142  0.40853987  0.75715931    -0.54300
C832        C  0.82807786  0.36656622  0.77939288     0.09700
C833        C  0.79537632  0.45364608  0.80572208    -0.53800
C834        C  0.79140820  0.41298685  0.82884916     0.10300
H835        H  0.88359226  0.47880358  0.81544202     0.14800
H836        H  0.82273748  0.34395569  0.84320520     0.00500
H837        H  0.83379718  0.40801800  0.72533160     0.15100
H838        H  0.77455419  0.48263430  0.80409559     0.14900
Zr839      Zr  0.38415235  0.05771970  0.00958279     2.17500
O840        O  0.42370605  0.00174296  0.97186407    -0.51200
O841        O  0.38830433  0.00281167  0.73346099    -0.74400
O842        O  0.45214245  0.07330917  0.01922295    -0.81100
O843        O  0.30077093  0.01018657  0.94670681    -0.82900
O844        O  0.45874791  0.14638055  0.71724262    -0.78500
O845        O  0.35876156  0.98985794  0.97043914    -0.90200
O846        O  0.35689038  0.03813459  0.78431600    -0.76100
O847        O  0.38056110  0.10199966  0.73571876    -0.85600
O848        O  0.32054266  0.05073468  0.69692076    -0.85300
O849        O  0.40193946  0.13989331  0.99200003    -0.72100
O850        O  0.34540992  0.09239534  0.95843335    -0.84200
Zr851      Zr  0.29904993  0.21722592  0.69067153     2.26400
Zr852      Zr  0.39789285  0.18388208  0.71935167     2.06300
Zr853      Zr  0.28132545  0.08715084  0.98055961     2.10000
Zr854      Zr  0.31649838  0.09752067  0.75576344     1.78800
O855        O  0.25034166  0.10032693  0.91752284    -0.93000
O856        O  0.32817474  0.12214163  0.82316085    -0.40800
O857        O  0.28148336  0.13475434  0.70530783    -0.77400
O858        O  0.33456525  0.18015401  0.74320487    -0.96100
O859        O  0.36156654  0.22166738  0.00153730    -0.89400
O860        O  0.29849250  0.17066433  0.96360073    -0.92300
C861        C  0.37572094  0.50453674  0.76916103     1.01500
C862        C  0.32878182  0.48124033  0.94842652     1.14400
C863        C  0.47217252  0.10740475  0.70207200     1.05200
O864        O  0.42526276  0.18336704  0.78499192    -0.94400
O865        O  0.38275871  0.25946623  0.75220718    -0.90200
O866        O  0.32074933  0.27494391  0.74076645    -0.83300
C867        C  0.35250416  0.28411358  0.75722398     1.11800
O868        O  0.39093630  0.12500972  0.89138563    -0.96400
Zr869      Zr  0.36272781  0.17521323  0.94278228     1.88900
O870        O  0.30541024  0.28332371  0.97420484    -0.73000
O871        O  0.44054614  0.24754554  0.02853954    -0.52300
O872        O  0.42478117  0.20623936  0.92439148    -0.97000
O873        O  0.32848289  0.19359791  0.88238530    -0.54200
O874        O  0.35777278  0.26343389  0.94024197    -0.73600
C875        C  0.33191766  0.29380650  0.94997395     0.98800
O876        O  0.25076084  0.27803152  0.70618915    -0.62400
O877        O  0.23886269  0.02023773  0.66490347    -0.57200
O878        O  0.23381819  0.19359236  0.69514653    -0.93900
O879        O  0.22119174  0.11649852  0.01046446    -0.92300
O880        O  0.27439083  0.02752433  0.76245712    -0.92600
O881        O  0.25999579  0.12247759  0.79120360    -0.91400
C882        C  0.21103159  0.15827602  0.02488075     1.17600
H883        H  0.31396307  0.01680108  0.70121179     0.33600
H884        H  0.33160071  0.19609710  0.76828504     0.44400
H885        H  0.28123099  0.18451687  0.94467125     0.37900
H886        H  0.42705275  0.14127440  0.98119915     0.34400
H887        H  0.32395652  0.09233609  0.83918119     0.26200
H888        H  0.46004212  0.24976076  0.71276029     0.32200
H889        H  0.41996536  0.23028584  0.90317155     0.38100
H890        H  0.28885813  0.00261007  0.77727170     0.32500
H891        H  0.25581394  0.99060523  0.00210904     0.31400
H892        H  0.22712676  0.11873209  0.92403393     0.33100
H893        H  0.34714447  0.21060504  0.86555388     0.32000
H894        H  0.23889683  0.11621541  0.77281150     0.36000
H895        H  0.24913063  0.27875229  0.73524983     0.28800
H896        H  0.44046715  0.98576107  0.99130359     0.33000
H897        H  0.40130545  0.14815164  0.87175409     0.35900
H898        H  0.23152954  0.02666359  0.69252436     0.28500
H899        H  0.26169686  0.31022891  0.69911236     0.41300
H900        H  0.42467634  0.14858095  0.79320204     0.31400
H901        H  0.35575370  0.12723208  0.82365496     0.39000
H902        H  0.31011806  0.21948105  0.88928400     0.30900
H903        H  0.45285388  0.23278592  0.00527155     0.30900
H904        H  0.44046284  0.02279357  0.95583477     0.31200
C905        C  0.38284380  0.38554452  0.83675456    -0.02300
C906        C  0.33070657  0.34215000  0.92802874     0.86700
C907        C  0.36314581  0.34829599  0.89932326    -0.53600
C908        C  0.36088009  0.38801511  0.87521774     0.09600
C909        C  0.32529543  0.42061118  0.88390650     0.20500
C910        C  0.33016461  0.38993341  0.95172753    -0.54300
C911        C  0.32724025  0.43164399  0.92917890     0.09700
C912        C  0.29576607  0.34398162  0.90253883    -0.53800
C913        C  0.29178477  0.38461410  0.87934021     0.10300
H914        H  0.38445186  0.32024574  0.89520543     0.14800
H915        H  0.32296890  0.45389050  0.86529883     0.00500
H916        H  0.33217767  0.39078283  0.98359000     0.15100
H917        H  0.27514833  0.31474914  0.90393241     0.14900
Zr918      Zr  0.08213702  0.49106902  0.84292267     2.17500
O919        O  0.04321394  0.04851874  0.80629781    -0.51200
O920        O  0.07767237  0.04434273  0.90136725    -0.74400
O921        O  0.01411257  0.47570078  0.85345144    -0.81100
O922        O  0.16582566  0.03754644  0.77898757    -0.82900
O923        O  0.00765817  0.40174724  0.88365590    -0.78500
O924        O  0.10870658  0.05908158  0.80435237    -0.90200
O925        O  0.11521337  0.01438142  0.94994315    -0.76100
O926        O  0.08629019  0.44587303  0.90278431    -0.85600
O927        O  0.14626530  0.49697681  0.86393651    -0.85300
O928        O  0.06422237  0.40896862  0.82566565    -0.72100
O929        O  0.12068511  0.45631690  0.79149922    -0.84200
Zr930      Zr  0.16734295  0.33069393  0.85704761     2.26400
Zr931      Zr  0.06848571  0.36413903  0.88628946     2.06300
Zr932      Zr  0.18494331  0.46137617  0.81353901     2.10000
Zr933      Zr  0.15061361  0.44953280  0.92251659     1.78800
O934        O  0.21529524  0.44839657  0.75014425    -0.93000
O935        O  0.13892437  0.42924554  0.99095157    -0.40800
O936        O  0.18528157  0.41295621  0.87163023    -0.77400
O937        O  0.13189425  0.36722997  0.90991697    -0.96100
O938        O  0.10427810  0.32711425  0.83537649    -0.89400
O939        O  0.16738423  0.37781037  0.79734204    -0.92300
C940        C  0.09124675  0.04445666  0.93641822     1.01500
C941        C  0.13784898  0.06760870  0.78282667     1.14400
C942        C  0.99433235  0.44088636  0.86866777     1.05200
O943        O  0.04263898  0.36514509  0.95262529    -0.94400
O944        O  0.08351272  0.28749923  0.91780373    -0.90200
O945        O  0.14576038  0.27267894  0.90715910    -0.83300
C946        C  0.11386248  0.26317740  0.92326777     1.11800
O947        O  0.07413747  0.42092589  0.72380551    -0.96400
Zr948      Zr  0.10317986  0.37328108  0.77637604     1.88900
O949        O  0.16170131  0.26635715  0.80745173    -0.73000
O950        O  0.02428903  0.30309894  0.86170771    -0.52300
O951        O  0.04085350  0.34286655  0.75825600    -0.97000
O952        O  0.13773710  0.35464906  0.71616867    -0.54200
O953        O  0.10818260  0.28490003  0.77503339    -0.73600
C954        C  0.13477850  0.25518587  0.78392338     0.98800
O955        O  0.21601412  0.27030523  0.87207987    -0.62400
O956        O  0.22727752  0.02916498  0.82930992    -0.57200
O957        O  0.23236366  0.35549786  0.86232329    -0.93900
O958        O  0.24634497  0.43179992  0.84047254    -0.92300
O959        O  0.19819026  0.01570908  0.92691784    -0.92600
O960        O  0.20436504  0.42048781  0.96060202    -0.91400
C961        C  0.25538367  0.39130116  0.85778534     1.17600
H962        H  0.15365852  0.03107856  0.86815686     0.33600
H963        H  0.13480647  0.35116134  0.93498622     0.44400
H964        H  0.18465034  0.36369203  0.77854357     0.37900
H965        H  0.03905752  0.40779267  0.81497514     0.34400
H966        H  0.14479557  0.45942885  0.00590210     0.26200
H967        H  0.00293474  0.30367154  0.88047438     0.32200
H968        H  0.04555867  0.31704706  0.73841577     0.38100
H969        H  0.18580477  0.04176697  0.94248665     0.32500
H970        H  0.21076826  0.05761425  0.83456706     0.31400
H971        H  0.23609325  0.42522052  0.75567959     0.33100
H972        H  0.11933376  0.33699724  0.69947950     0.32000
H973        H  0.21814400  0.39810284  0.94277822     0.36000
H974        H  0.21765946  0.26932435  0.90114608     0.28800
H975        H  0.02627164  0.06392530  0.82586139     0.33000
H976        H  0.06499902  0.39694381  0.70416790     0.35900
H977        H  0.23815741  0.02138139  0.85538208     0.28500
H978        H  0.20522744  0.23811984  0.86480471     0.41300
H979        H  0.04471020  0.39968483  0.96118779     0.31400
H980        H  0.11119052  0.42635205  0.99215458     0.39000
H981        H  0.15640668  0.32924974  0.72333363     0.30900
H982        H  0.01398318  0.31741916  0.83722138     0.30900
H983        H  0.02431996  0.52444180  0.79003601     0.31200
C984        C  0.08411859  0.16298793  0.00453209    -0.02300
C985        C  0.13611375  0.20674293  0.76203328     0.86700
C986        C  0.10393319  0.20058434  0.73295700    -0.53600
C987        C  0.10617750  0.16047106  0.70922588     0.09600
C988        C  0.14159669  0.12789247  0.71834007     0.20500
C989        C  0.13635139  0.15905527  0.78595896    -0.54300
C990        C  0.13938272  0.11719978  0.76360472     0.09700
C991        C  0.17123878  0.20452409  0.73684800    -0.53800
C992        C  0.17515567  0.16375192  0.71378899     0.10300
H993        H  0.08278020  0.22873679  0.72841914     0.14800
H994        H  0.14399278  0.09450729  0.69989762     0.00500
H995        H  0.13416050  0.15839172  0.81781530     0.15100
H996        H  0.19194009  0.23364182  0.73822949     0.14900
C997        C  0.10251323  0.19583210  0.97646749    -0.13100
C998        C  0.11160804  0.22456234  0.95141215    -0.14700
C999        C  0.08123841  0.08226352  0.96278788    -0.13100
C1000       C  0.08112132  0.11595696  0.98521867    -0.14700
C1001       C  0.38587341  0.43232193  0.81718353    -0.13100
C1002       C  0.38558621  0.46635400  0.79514080    -0.14700
C1003       C  0.35470069  0.32308155  0.78493183    -0.13100
C1004       C  0.36394384  0.35248217  0.80933850    -0.14700
C1005       C  0.92116795  0.43085654  0.86772185    -0.13100
C1006       C  0.95402215  0.44232548  0.86690828    -0.14700
C1007       C  0.86362897  0.44428889  0.90091702    -0.13100
C1008       C  0.85505030  0.97401638  0.92531404    -0.14700
C1009       C  0.88563649  0.33080451  0.91404432    -0.13100
C1010       C  0.88569056  0.36475494  0.89187012    -0.14700
C1011       C  0.01221356  0.19098755  0.67717111    -0.13100
C1012       C  0.04507793  0.17995306  0.67653219    -0.14700
C1013       C  0.51245812  0.10599345  0.70051075    -0.13100
C1014       C  0.54536028  0.11712679  0.70129026    -0.14700
C1015       C  0.60324029  0.10210319  0.73328715    -0.13100
C1016       C  0.61268437  0.07274371  0.75764489    -0.14700
C1017       C  0.58156719  0.18207716  0.72602520    -0.13100
C1018       C  0.58178371  0.21571209  0.74847102    -0.14700
C1019       C  0.42156737  0.36696248  0.84200095    -0.13100
C1020       C  0.45445602  0.35587083  0.84300415    -0.14700
Zr1021     Zr  0.58209358  0.80720389  0.19987234     2.17500
O1022       O  0.54215888  0.75136305  0.23744549    -0.51200
O1023       O  0.57706954  0.75463329  0.14181305    -0.74400
O1024       O  0.51402736  0.82308547  0.19064876    -0.81100
O1025       O  0.66587625  0.75948528  0.26223611    -0.82900
O1026       O  0.50757082  0.89677584  0.15996950    -0.78500
O1027       O  0.60787020  0.73912526  0.23851255    -0.90200
O1028       O  0.61404054  0.78488506  0.09285665    -0.76100
O1029       O  0.58583979  0.85307031  0.14043525    -0.85600
O1030       O  0.64600603  0.80148882  0.17824713    -0.85300
O1031       O  0.56460086  0.88920077  0.21798456    -0.72100
O1032       O  0.62106502  0.84154398  0.25103665    -0.84200
Zr1033     Zr  0.66775727  0.96737788  0.18556382     2.26400
Zr1034     Zr  0.56833753  0.93467957  0.15761692     2.06300
Zr1035     Zr  0.68514589  0.83656008  0.22853172     2.10000
Zr1036     Zr  0.64990579  0.84946655  0.11989347     1.78800
O1037       O  0.71496773  0.84971184  0.29216370    -0.93000
O1038       O  0.63329761  0.87084221  0.05286965    -0.40800
O1039       O  0.68537948  0.88521878  0.17051163    -0.77400
O1040       O  0.63144949  0.93144395  0.13318457    -0.96100
O1041       O  0.60497124  0.97097275  0.20808095    -0.89400
O1042       O  0.66820318  0.92018816  0.24517460    -0.92300
C1043       C  0.59035725  0.75467144  0.10664580     1.01500
C1044       C  0.63742618  0.73002695  0.25927435     1.14400
C1045       C  0.49425905  0.85774973  0.17521174     1.05200
O1046       O  0.54145520  0.93636266  0.09175763    -0.94400
O1047       O  0.58380262  0.01116733  0.12594572    -0.90200
O1048       O  0.64631217  0.02525578  0.13553767    -0.83300
C1049       C  0.61217770  0.53495385  0.11887537     1.11800
O1050       O  0.57413877  0.87720454  0.31903254    -0.96400
Zr1051     Zr  0.60422965  0.92453137  0.26687911     1.88900
O1052       O  0.66183247  0.03247503  0.23425031    -0.73000
O1053       O  0.52486536  0.99519365  0.18437136    -0.52300
O1054       O  0.54328825  0.95873742  0.28573341    -0.97000
O1055       O  0.63760116  0.94209121  0.99387915    -0.54200
O1056       O  0.60951428  0.01273093  0.26838399    -0.73600
C1057       C  0.63412606  0.54280172  0.25853974     0.98800
O1058       O  0.71605131  0.02813502  0.17003879    -0.62400
O1059       O  0.72808239  0.77055427  0.20989302    -0.57200
O1060       O  0.73271051  0.94221200  0.18010883    -0.93900
O1061       O  0.74654085  0.86555607  0.20120014    -0.92300
O1062       O  0.69762730  0.78613373  0.11290633    -0.92600
O1063       O  0.70224781  0.88074348  0.08085355    -0.91400
C1064       C  0.75562950  0.90621143  0.18415529     1.17600
H1065       H  0.65272066  0.76773729  0.17331415     0.33600
H1066       H  0.63410020  0.94740179  0.10804449     0.44400
H1067       H  0.68569915  0.93420183  0.26378679     0.37900
H1068       H  0.53957012  0.89046487  0.22901084     0.34400
H1069       H  0.64104704  0.84243765  0.03667026     0.26200
H1070       H  0.50388538  0.99669387  0.16518816     0.32200
H1071       H  0.54869853  0.98078162  0.30815469     0.38100
H1072       H  0.68386743  0.75667278  0.10387500     0.32500
H1073       H  0.71257415  0.74051155  0.20839285     0.31400
H1074       H  0.73645716  0.87178988  0.28658440     0.33100
H1075       H  0.61889844  0.95836018  0.01110189     0.32000
H1076       H  0.70780793  0.91335795  0.09219574     0.36000
H1077       H  0.71827149  0.02791945  0.14100802     0.28800
H1078       H  0.52529096  0.73560700  0.21799403     0.33000
H1079       H  0.56402576  0.89801889  0.00414142     0.35900
H1080       H  0.73501927  0.77713210  0.18217930     0.28500
H1081       H  0.70475078  0.06040548  0.17615239     0.41300
H1082       H  0.54171217  0.90179698  0.08300142     0.32200
H1083       H  0.60545774  0.86960580  0.05309508     0.39000
H1084       H  0.65742402  0.96852081  0.31978935     0.30900
H1085       H  0.51378443  0.97940549  0.20789167     0.30900
H1086       H  0.52552643  0.77243176  0.25357985     0.31200
C1087       C  0.58313483  0.63637482  0.03858718    -0.02300
C1088       C  0.63564000  0.59105554  0.28038237     0.86700
C1089       C  0.60362195  0.59715085  0.30961194    -0.53600
C1090       C  0.60538976  0.63807254  0.00023392     0.09600
C1091       C  0.64091013  0.67061135  0.99099795     0.20500
C1092       C  0.63570560  0.63863645  0.25638878    -0.54300
C1093       C  0.63889723  0.68049168  0.27864761     0.09700
C1094       C  0.67098464  0.59323433  0.30527706    -0.53800
C1095       C  0.67502611  0.63398144  0.32828616     0.10300
H1096       H  0.58251882  0.56895757  0.31431110     0.14800
H1097       H  0.64335361  0.70409289  0.00932430     0.00500
H1098       H  0.63332569  0.63922017  0.22454748     0.15100
H1099       H  0.69173229  0.56414852  0.30376551     0.14900
Zr1100     Zr  0.88404962  0.74087528  0.03228531     2.17500
O1101       O  0.92455065  0.79771930  0.06816375    -0.51200
O1102       O  0.88808754  0.79331981  0.97419445    -0.74400
O1103       O  0.95204363  0.72497649  0.02256119    -0.81100
O1104       O  0.80112710  0.78771767  0.09637058    -0.82900
O1105       O  0.95840390  0.65134692  0.99183934    -0.78500
O1106       O  0.85865872  0.80860399  0.07162590    -0.90200
O1107       O  0.85122558  0.76524460  0.26044378    -0.76100
O1108       O  0.87941671  0.69550108  0.97267757    -0.85600
O1109       O  0.81991835  0.74670149  0.01151207    -0.85300
O1110       O  0.90198631  0.65884805  0.04988070    -0.72100
O1111       O  0.84559489  0.70657286  0.08390760    -0.84200
Zr1112     Zr  0.79859105  0.58041428  0.01919467     2.26400
Zr1113     Zr  0.89737946  0.61393951  0.98932693     2.06300
Zr1114     Zr  0.78131893  0.71126138  0.06209643     2.10000
Zr1115     Zr  0.81667200  0.69848473  0.28627999     1.78800
O1116       O  0.74986716  0.69623177  0.12462922    -0.93000
O1117       O  0.83586560  0.67939751  0.21955056    -0.40800
O1118       O  0.78077510  0.66251454  0.00431924    -0.77400
O1119       O  0.83492089  0.61635785  0.29963355    -0.96100
O1120       O  0.86171976  0.57741505  0.04066017    -0.89400
O1121       O  0.79880896  0.62778614  0.07872789    -0.92300
C1122       C  0.87517468  0.79511056  0.27424037     1.01500
C1123       C  0.82941713  0.81739170  0.09298062     1.14400
C1124       C  0.97178227  0.69030815  0.00712765     1.05200
O1125       O  0.92712848  0.61484422  0.25853762    -0.94400
O1126       O  0.88264856  0.53757578  0.29123430    -0.90200
O1127       O  0.82064016  0.52204173  0.30286424    -0.83300
C1128       C  0.85236051  0.51288642  0.28636641     1.11800
O1129       O  0.89193887  0.67386911  0.15064371    -0.96400
Zr1130     Zr  0.86305114  0.62384095  0.09949989     1.88900
O1131       O  0.80485089  0.51613210  0.06867925    -0.73000
O1132       O  0.94058375  0.55144790  0.01337594    -0.52300
O1133       O  0.92513723  0.59238753  0.11731204    -0.97000
O1134       O  0.82883793  0.60785464  0.16043049    -0.54200
O1135       O  0.85744952  0.53571668  0.10242065    -0.73600
C1136       C  0.83147932  0.50547918  0.09270927     0.98800
O1137       O  0.75100119  0.51844164  0.33852596    -0.62400
O1138       O  0.73957751  0.77902622  0.04449234    -0.57200
O1139       O  0.73306809  0.60417111  0.01469032    -0.93900
O1140       O  0.72053913  0.68234134  0.03315164    -0.92300
O1141       O  0.76688718  0.75934653  0.28098554    -0.92600
O1142       O  0.76621491  0.66743489  0.24457925    -0.91400
C1143       C  0.71080396  0.64112398  0.01740067     1.17600
H1144       H  0.81328986  0.78052843  0.00679928     0.33600
H1145       H  0.83198614  0.60032065  0.27457108     0.44400
H1146       H  0.78170834  0.61371065  0.09773808     0.37900
H1147       H  0.92713543  0.65745935  0.06058660     0.34400
H1148       H  0.82755649  0.70757466  0.20338355     0.26200
H1149       H  0.96058713  0.54946178  0.99311229     0.32200
H1150       H  0.92048838  0.56922260  0.13919824     0.38100
H1151       H  0.77962813  0.78956970  0.27191867     0.32500
H1152       H  0.75590927  0.80810810  0.04118926     0.31400
H1153       H  0.72703170  0.67728257  0.11763624     0.33100
H1154       H  0.84773675  0.59267802  0.17806640     0.32000
H1155       H  0.75902349  0.63572863  0.25658984     0.36000
H1156       H  0.74874661  0.51739736  0.30952088     0.28800
H1157       H  0.94114027  0.81294442  0.04816310     0.33000
H1158       H  0.90325784  0.65078600  0.16972434     0.35900
H1159       H  0.73067121  0.77189809  0.01750854     0.28500
H1160       H  0.76237004  0.48647758  0.34552916     0.41300
H1161       H  0.90611864  0.60851202  0.24007456     0.31400
H1162       H  0.86363188  0.68231832  0.22061706     0.39000
H1163       H  0.81114833  0.58084454  0.15443848     0.30900
H1164       H  0.95306595  0.56647058  0.03643264     0.30900
H1165       H  0.94141654  0.77714013  0.08445354     0.31200
C1166       C  0.88274390  0.91317686  0.20559417    -0.02300
C1167       C  0.83082408  0.95631973  0.11416889     0.86700
C1168       C  0.86308995  0.95044961  0.14308713    -0.53600
C1169       C  0.86101073  0.91050267  0.16696581     0.09600
C1170       C  0.82572882  0.87749112  0.15783033     0.20500
C1171       C  0.83079652  0.90879287  0.09017915    -0.54300
C1172       C  0.82801260  0.86687321  0.11246708     0.09700
C1173       C  0.79574464  0.95385155  0.13939189    -0.53800
C1174       C  0.79192965  0.91304245  0.16240326     0.10300
H1175       H  0.88401086  0.97890041  0.14763777     0.14800
H1176       H  0.82354235  0.84402432  0.17623477     0.00500
H1177       H  0.83289664  0.90829188  0.05831365     0.15100
H1178       H  0.77497747  0.98287872  0.13805771     0.14900
Zr1179     Zr  0.38431029  0.55744690  0.34346069     2.17500
O1180       O  0.42426472  0.50050623  0.30712509    -0.51200
O1181       O  0.38922087  0.50380798  0.06724343    -0.74400
O1182       O  0.45237928  0.57310828  0.35265404    -0.81100
O1183       O  0.30092325  0.51032405  0.28009363    -0.82900
O1184       O  0.45773178  0.64525999  0.05130673    -0.78500
O1185       O  0.35896287  0.49005424  0.30376114    -0.90200
O1186       O  0.35121038  0.53240127  0.11596220    -0.76100
O1187       O  0.37956826  0.60124480  0.06959965    -0.85600
O1188       O  0.31999380  0.55064283  0.03094878    -0.85300
O1189       O  0.40208590  0.63964086  0.32604792    -0.72100
O1190       O  0.34552221  0.59201633  0.29219154    -0.84200
Zr1191     Zr  0.29816561  0.71721316  0.02397316     2.26400
Zr1192     Zr  0.39692250  0.68320097  0.05368070     2.06300
Zr1193     Zr  0.28135386  0.58693991  0.31429649     2.10000
Zr1194     Zr  0.31542197  0.59775575  0.08961340     1.78800
O1195       O  0.25037978  0.59951670  0.25114823    -0.93000
O1196       O  0.33228027  0.61927099  0.15655807    -0.40800
O1197       O  0.28049108  0.63486259  0.03909441    -0.77400
O1198       O  0.33333592  0.68011548  0.07680794    -0.96100
O1199       O  0.36221848  0.72107540  0.33564402    -0.89400
O1200       O  0.29868892  0.67047411  0.29761053    -0.92300
C1201       C  0.37462139  0.00323154  0.10175237     1.01500
C1202       C  0.32965458  0.98071552  0.28322219     1.14400
C1203       C  0.47133078  0.60727946  0.03471275     1.05200
O1204       O  0.42245995  0.68143385  0.12015211    -0.94400
O1205       O  0.38141414  0.75861144  0.08654958    -0.90200
O1206       O  0.31963301  0.77479392  0.07433508    -0.83300
C1207       C  0.35126278  0.78356487  0.09120913     1.11800
O1208       O  0.39209390  0.62544726  0.22542761    -0.96400
Zr1209     Zr  0.36293926  0.67485261  0.27672067     1.88900
O1210       O  0.30517802  0.78204968  0.30767207    -0.73000
O1211       O  0.44107513  0.74778229  0.36364252    -0.52300
O1212       O  0.42528596  0.70394711  0.25737920    -0.97000
O1213       O  0.32791646  0.69304170  0.21666349    -0.54200
O1214       O  0.35850612  0.76320116  0.27505373    -0.73600
C1215       C  0.33207922  0.79308091  0.28409251     0.98800
O1216       O  0.25036783  0.77864623  0.03947345    -0.62400
O1217       O  0.24004886  0.51785636  0.99816962    -0.57200
O1218       O  0.23214236  0.69551057  0.02604373    -0.93900
O1219       O  0.22014624  0.61619262  0.34213913    -0.92300
O1220       O  0.26698533  0.53504191  0.09439770    -0.92600
O1221       O  0.26354857  0.62657938  0.13042689    -0.91400
C1222       C  0.21125805  0.65648416  0.35984159     1.17600
H1223       H  0.31343090  0.51675727  0.03557856     0.33600
H1224       H  0.33015332  0.69595653  0.10191368     0.44400
H1225       H  0.28138908  0.68449417  0.27878810     0.37900
H1226       H  0.42716116  0.64101920  0.31517085     0.34400
H1227       H  0.32490149  0.59069362  0.17277962     0.26200
H1228       H  0.46029167  0.74745608  0.05074027     0.32200
H1229       H  0.42055271  0.73046036  0.23813575     0.38100
H1230       H  0.27998176  0.50613241  0.10556261     0.32500
H1231       H  0.25551865  0.49054634  0.33555844     0.31400
H1232       H  0.22684704  0.61728045  0.25757426     0.33100
H1233       H  0.34660185  0.70874937  0.19907008     0.32000
H1234       H  0.25009510  0.65076549  0.11387256     0.36000
H1235       H  0.24860569  0.77940790  0.06851690     0.28800
H1236       H  0.44102167  0.48525321  0.32694646     0.33000
H1237       H  0.40009610  0.64869938  0.20470307     0.35900
H1238       H  0.23038447  0.52515327  0.02484471     0.28500
H1239       H  0.26162667  0.81067222  0.03241102     0.41300
H1240       H  0.42552867  0.64623843  0.12638174     0.31400
H1241       H  0.36011771  0.61832501  0.15603480     0.39000
H1242       H  0.31038824  0.71992182  0.22349294     0.30900
H1243       H  0.45181216  0.73463423  0.33894736     0.30900
H1244       H  0.44099720  0.52106929  0.29066259     0.31200
C1245       C  0.38214969  0.88504418  0.17040934    -0.02300
C1246       C  0.33078838  0.84151679  0.26228409     0.86700
C1247       C  0.36269251  0.84727965  0.23287550    -0.53600
C1248       C  0.36044906  0.88728657  0.20906591     0.09600
C1249       C  0.32533502  0.92033038  0.21856541     0.20500
C1250       C  0.33113575  0.88919296  0.28618113    -0.54300
C1251       C  0.32811830  0.93109675  0.26386070     0.09700
C1252       C  0.29537109  0.84405846  0.23755255    -0.53800
C1253       C  0.29148565  0.88477632  0.21443549     0.10300
H1254       H  0.38356189  0.81883802  0.22807951     0.14800
H1255       H  0.32295968  0.95371393  0.20008971     0.00500
H1256       H  0.33359784  0.88979805  0.31801256     0.15100
H1257       H  0.27449424  0.81512142  0.23916963     0.14900
Zr1258     Zr  0.08254202  0.99150850  0.17669912     2.17500
O1259       O  0.04049934  0.54709775  0.14035616    -0.51200
O1260       O  0.07746654  0.54486092  0.23428544    -0.74400
O1261       O  0.01444406  0.97645747  0.18619087    -0.81100
O1262       O  0.16535941  0.53889760  0.11439926    -0.82900
O1263       O  0.00778886  0.90224901  0.21601461    -0.78500
O1264       O  0.10681925  0.55877470  0.13698617    -0.90200
O1265       O  0.11077044  0.51125722  0.28463498    -0.76100
O1266       O  0.08637437  0.94644251  0.23655344    -0.85600
O1267       O  0.14660154  0.99729532  0.19774505    -0.85300
O1268       O  0.06462199  0.90941012  0.15929273    -0.72100
O1269       O  0.12108760  0.95667265  0.12538936    -0.84200
Zr1270     Zr  0.16734423  0.83077220  0.19046268     2.26400
Zr1271     Zr  0.06863362  0.86475127  0.22009188     2.06300
Zr1272     Zr  0.18528665  0.96157806  0.14745348     2.10000
Zr1273     Zr  0.15060058  0.94979752  0.25630511     1.78800
O1274       O  0.21588040  0.94844291  0.08420828    -0.93000
O1275       O  0.13875328  0.92417643  0.32339248    -0.40800
O1276       O  0.18522809  0.91298723  0.20541642    -0.77400
O1277       O  0.13214575  0.86745247  0.24339057    -0.96100
O1278       O  0.10422558  0.82764708  0.16897473    -0.89400
O1279       O  0.16775345  0.87809267  0.13093366    -0.92300
C1280       C  0.08902941  0.54335038  0.27007663     1.01500
C1281       C  0.13665569  0.56805605  0.11669495     1.14400
C1282       C  0.99458276  0.94155349  0.20115000     1.05200
O1283       O  0.04332705  0.86903461  0.28658142    -0.94400
O1284       O  0.08370197  0.78867142  0.25246725    -0.90200
O1285       O  0.14558853  0.77279951  0.24049106    -0.83300
C1286       C  0.11389755  0.76377039  0.25720562     1.11800
O1287       O  0.07480379  0.92142377  0.05728478    -0.96400
Zr1288     Zr  0.10354775  0.87378886  0.10997692     1.88900
O1289       O  0.16115749  0.76661522  0.14086534    -0.73000
O1290       O  0.02439716  0.80185859  0.19887922    -0.52300
O1291       O  0.04120740  0.84373562  0.09164393    -0.97000
O1292       O  0.13863698  0.85507257  0.05008264    -0.54200
O1293       O  0.10773676  0.78543716  0.10846509    -0.73600
C1294       C  0.13418965  0.75556942  0.11739859     0.98800
O1295       O  0.21523336  0.76851669  0.20336507    -0.62400
O1296       O  0.22819286  0.52770635  0.16602499    -0.57200
O1297       O  0.23236688  0.85541943  0.19654083    -0.93900
O1298       O  0.24631061  0.93208345  0.17538411    -0.92300
O1299       O  0.19390549  0.51756487  0.26390892    -0.92600
O1300       O  0.20525341  0.92371460  0.29426489    -0.91400
C1301       C  0.25529032  0.89144914  0.19255054     1.17600
H1302       H  0.15224661  0.53134309  0.20275479     0.33600
H1303       H  0.13521073  0.85132201  0.26840114     0.44400
H1304       H  0.18507586  0.86403089  0.11216013     0.37900
H1305       H  0.03953644  0.90820025  0.14841960     0.34400
H1306       H  0.14182070  0.95405746  0.33957327     0.26200
H1307       H  0.00419311  0.80206171  0.21899462     0.32200
H1308       H  0.04584309  0.81881804  0.07105606     0.38100
H1309       H  0.18195658  0.53999526  0.28307795     0.32500
H1310       H  0.21290234  0.55795420  0.16706444     0.31400
H1311       H  0.23790597  0.92748667  0.09024741     0.33100
H1312       H  0.12020179  0.83816428  0.03294689     0.32000
H1313       H  0.21518116  0.89483805  0.28002735     0.36000
H1314       H  0.21821319  0.76780579  0.23230680     0.28800
H1315       H  0.02390991  0.56266629  0.16017679     0.33000
H1316       H  0.06659327  0.89743840  0.03721472     0.35900
H1317       H  0.23496367  0.52166811  0.19386308     0.28500
H1318       H  0.20335176  0.73666073  0.19702338     0.41300
H1319       H  0.04168347  0.90445535  0.29253582     0.31400
H1320       H  0.11135447  0.91768464  0.32334665     0.39000
H1321       H  0.15677448  0.82904078  0.05728921     0.30900
H1322       H  0.01239748  0.81540015  0.17495695     0.30900
H1323       H  0.02632569  0.02661295  0.12286797     0.31200
C1324       C  0.08395935  0.66271829  0.33744028    -0.02300
C1325       C  0.13544235  0.70715080  0.09559828     0.86700
C1326       C  0.10343924  0.70126337  0.06626241    -0.53600
C1327       C  0.10574724  0.66126928  0.04245616     0.09600
C1328       C  0.14093692  0.62833889  0.05197253     0.20500
C1329       C  0.13522905  0.65951258  0.11956283    -0.54300
C1330       C  0.13825585  0.61762132  0.09728564     0.09700
C1331       C  0.17084189  0.70466444  0.07078208    -0.53800
C1332       C  0.17470490  0.66399848  0.04767504     0.10300
H1333       H  0.08246732  0.72959607  0.06151308     0.14800
H1334       H  0.14334009  0.59494188  0.03354534     0.00500
H1335       H  0.13280908  0.65891465  0.15140209     0.15100
H1336       H  0.19173410  0.73354869  0.07234151     0.14900
C1337       C  0.10284807  0.69551023  0.30971205    -0.13100
C1338       C  0.11180162  0.72478721  0.28502165    -0.14700
C1339       C  0.07981955  0.58184199  0.29601705    -0.13100
C1340       C  0.08052092  0.61583950  0.31808723    -0.14700
C1341       C  0.38485169  0.93165547  0.15047309    -0.13100
C1342       C  0.38448950  0.96516685  0.12788620    -0.14700
C1343       C  0.35352262  0.82247932  0.11892755    -0.13100
C1344       C  0.36314064  0.85178177  0.14323964    -0.14700
C1345       C  0.92145594  0.93195342  0.20043756    -0.13100
C1346       C  0.95432256  0.94320983  0.19939765    -0.14700
C1347       C  0.86359439  0.94615878  0.23286217    -0.13100
C1348       C  0.85433585  0.47415045  0.25850205    -0.14700
C1349       C  0.88520257  0.83321968  0.24821719    -0.13100
C1350       C  0.88573082  0.86664955  0.22556745    -0.14700
C1351       C  0.01207228  0.69183914  0.00909332    -0.13100
C1352       C  0.04508718  0.68124676  0.00865630    -0.14700
C1353       C  0.51156896  0.60652625  0.03255569    -0.13100
C1354       C  0.54437870  0.61801879  0.03322853    -0.14700
C1355       C  0.60149718  0.60335465  0.06643643    -0.13100
C1356       C  0.61007844  0.57399095  0.09115944    -0.14700
C1357       C  0.58018562  0.68325927  0.05796227    -0.13100
C1358       C  0.58034366  0.71687237  0.08039955    -0.14700
C1359       C  0.42100643  0.86681426  0.17555268    -0.13100
C1360       C  0.45396468  0.85602557  0.17671597    -0.14700
Zr1361     Zr  0.58185421  0.80699418  0.53278964     2.17500
O1362       O  0.54250790  0.74990357  0.56983688    -0.51200
O1363       O  0.57707098  0.75486656  0.47451595    -0.74400
O1364       O  0.51379289  0.82206474  0.52384845    -0.81100
O1365       O  0.66421096  0.76088761  0.59723116    -0.82900
O1366       O  0.50753911  0.89457934  0.49142134    -0.78500
O1367       O  0.60740797  0.73898167  0.57141397    -0.90200
O1368       O  0.61720630  0.78224302  0.42720282    -0.76100
O1369       O  0.58626951  0.85209874  0.47301922    -0.85600
O1370       O  0.64601154  0.80157248  0.51204703    -0.85300
O1371       O  0.56376814  0.88900095  0.55036223    -0.72100
O1372       O  0.61996821  0.84194639  0.58437636    -0.84200
Zr1373     Zr  0.66678771  0.96799428  0.51928102     2.26400
Zr1374     Zr  0.56806857  0.93359932  0.48962699     2.06300
Zr1375     Zr  0.68423911  0.83724232  0.56276161     2.10000
Zr1376     Zr  0.65069885  0.84933057  0.45362849     1.78800
O1377       O  0.71401848  0.85166933  0.62622901    -0.93000
O1378       O  0.63355289  0.86923117  0.38650737    -0.40800
O1379       O  0.68468167  0.88586350  0.50483912    -0.77400
O1380       O  0.63164581  0.93129813  0.46633375    -0.96100
O1381       O  0.60359774  0.97089008  0.54071681    -0.89400
O1382       O  0.66684194  0.92084013  0.57895921    -0.92300
C1383       C  0.59211746  0.75338879  0.44016334     1.01500
C1384       C  0.63631473  0.73070026  0.59331860     1.14400
C1385       C  0.49411740  0.85614972  0.50755715     1.05200
O1386       O  0.54241589  0.93318064  0.42320619    -0.94400
O1387       O  0.58307817  0.01015800  0.45786875    -0.90200
O1388       O  0.64521004  0.02549916  0.46889172    -0.83300
C1389       C  0.61441089  0.53509765  0.45269646     1.11800
O1390       O  0.57476602  0.87620192  0.65248734    -0.96400
Zr1391     Zr  0.60259104  0.92483658  0.59978680     1.88900
O1392       O  0.65998333  0.03277830  0.56811414    -0.73000
O1393       O  0.52329467  0.99403346  0.51387435    -0.52300
O1394       O  0.54013900  0.95504615  0.61755782    -0.97000
O1395       O  0.64092318  0.94039536  0.32621833    -0.54200
O1396       O  0.60758227  0.01308230  0.60216885    -0.73600
C1397       C  0.63352632  0.54341394  0.59268984     0.98800
O1398       O  0.71510168  0.02936771  0.50534284    -0.62400
O1399       O  0.72666813  0.76992213  0.54603481    -0.57200
O1400       O  0.73206267  0.94364329  0.51384706    -0.93900
O1401       O  0.74508734  0.86615868  0.53378058    -0.92300
O1402       O  0.70112047  0.78940758  0.44844973    -0.92600
O1403       O  0.70235015  0.88042749  0.41349006    -0.91400
C1404       C  0.75453900  0.90699895  0.51715548     1.17600
H1405       H  0.65294318  0.76785478  0.50730174     0.33600
H1406       H  0.63460467  0.94723196  0.44121915     0.44400
H1407       H  0.68408474  0.93497277  0.59777112     0.37900
H1408       H  0.53859136  0.89024610  0.56100186     0.34400
H1409       H  0.64330261  0.84181775  0.37037725     0.26200
H1410       H  0.50330774  0.99535215  0.49355963     0.32200
H1411       H  0.54463591  0.97990608  0.63822259     0.38100
H1412       H  0.68837415  0.75819049  0.44197585     0.32500
H1413       H  0.71073025  0.74029066  0.54410186     0.31400
H1414       H  0.73771063  0.86912574  0.61987862     0.33100
H1415       H  0.62250953  0.95413798  0.34510477     0.32000
H1416       H  0.70831086  0.91292214  0.42482106     0.36000
H1417       H  0.71776380  0.02970190  0.47635832     0.28800
H1418       H  0.52575033  0.73420071  0.55025410     0.33000
H1419       H  0.56569395  0.90116966  0.33901283     0.35900
H1420       H  0.73464792  0.77604887  0.51857257     0.28500
H1421       H  0.70354435  0.06144152  0.51159906     0.41300
H1422       H  0.53981463  0.89810583  0.41636707     0.32200
H1423       H  0.60590684  0.86482629  0.38644318     0.39000
H1424       H  0.65567490  0.96949343  0.65282488     0.30900
H1425       H  0.51110544  0.97827440  0.53680242     0.30900
H1426       H  0.52571273  0.77041471  0.58624710     0.31200
C1427       C  0.58429895  0.63515095  0.37200732    -0.02300
C1428       C  0.63491697  0.59174694  0.61444081     0.86700
C1429       C  0.60319222  0.59750878  0.64406750    -0.53600
C1430       C  0.60605064  0.63712564  0.33337677     0.09600
C1431       C  0.64140865  0.66981349  0.32395535     0.20500
C1432       C  0.63445636  0.63936690  0.59052963    -0.54300
C1433       C  0.63778531  0.68120884  0.61280477     0.09700
C1434       C  0.67054300  0.59418096  0.63886665    -0.53800
C1435       C  0.67463369  0.63477073  0.66202409     0.10300
H1436       H  0.58217838  0.56922991  0.64886182     0.14800
H1437       H  0.64390486  0.70322722  0.34235173     0.00500
H1438       H  0.63178249  0.63998447  0.55871120     0.15100
H1439       H  0.69136985  0.56520880  0.63708632     0.14900
Zr1440     Zr  0.88430081  0.74054668  0.36646848     2.17500
O1441       O  0.92434938  0.79477582  0.40529352    -0.51200
O1442       O  0.88899888  0.79431923  0.30915399    -0.74400
O1443       O  0.95229402  0.72532812  0.35672586    -0.81100
O1444       O  0.80072801  0.78709158  0.42953116    -0.82900
O1445       O  0.95891750  0.65191731  0.32572959    -0.78500
O1446       O  0.85815617  0.80853280  0.40488857    -0.90200
O1447       O  0.85221685  0.76124775  0.59250249    -0.76100
O1448       O  0.88068363  0.69519454  0.30677958    -0.85600
O1449       O  0.82049154  0.74612194  0.34471708    -0.85300
O1450       O  0.90226268  0.65850494  0.38408766    -0.72100
O1451       O  0.84541313  0.70571616  0.41743214    -0.84200
Zr1452     Zr  0.79903847  0.58020757  0.35246366     2.26400
Zr1453     Zr  0.89830173  0.61352187  0.32354093     2.06300
Zr1454     Zr  0.78140872  0.71075617  0.39493502     2.10000
Zr1455     Zr  0.81511816  0.69868337  0.62094661     1.78800
O1456       O  0.75012278  0.69621690  0.45761989    -0.93000
O1457       O  0.82824897  0.67393645  0.55392320    -0.40800
O1458       O  0.78123335  0.66223178  0.33686158    -0.77400
O1459       O  0.83386046  0.61657622  0.63374530    -0.96100
O1460       O  0.86210620  0.57667817  0.37432559    -0.89400
O1461       O  0.79880232  0.62739565  0.41199696    -0.92300
C1462       C  0.87505970  0.79251328  0.60633226     1.01500
C1463       C  0.82878282  0.81709664  0.42608960     1.14400
C1464       C  0.97212725  0.69088171  0.34114534     1.05200
O1465       O  0.92443664  0.61429902  0.59097048    -0.94400
O1466       O  0.88223035  0.53765029  0.62481285    -0.90200
O1467       O  0.82017133  0.52247186  0.63644954    -0.83300
C1468       C  0.85185790  0.51320496  0.61987036     1.11800
O1469       O  0.89035933  0.67219587  0.48569058    -0.96400
Zr1470     Zr  0.86293985  0.62298924  0.43316130     1.88900
O1471       O  0.80481247  0.51581320  0.40186910    -0.73000
O1472       O  0.94189348  0.55217751  0.34876248    -0.52300
O1473       O  0.92509449  0.59245208  0.45169919    -0.97000
O1474       O  0.82863622  0.60483612  0.49357635    -0.54200
O1475       O  0.85801522  0.53465011  0.43467817    -0.73600
C1476       C  0.83159505  0.50478283  0.42554628     0.98800
O1477       O  0.75056601  0.51837167  0.67280687    -0.62400
O1478       O  0.74006013  0.77931285  0.37812831    -0.57200
O1479       O  0.73369650  0.60395152  0.34716541    -0.93900
O1480       O  0.72065459  0.68171968  0.36619823    -0.92300
O1481       O  0.76822134  0.76334589  0.61571989    -0.92600
O1482       O  0.76094600  0.67204105  0.58254861    -0.91400
C1483       C  0.71121981  0.64059356  0.35013688     1.17600
H1484       H  0.81378198  0.77987770  0.33979656     0.33600
H1485       H  0.83074816  0.60063959  0.60867732     0.44400
H1486       H  0.78150691  0.61334031  0.43083067     0.37900
H1487       H  0.92738082  0.65733754  0.39490730     0.34400
H1488       H  0.82504613  0.70384002  0.53778241     0.26200
H1489       H  0.96185269  0.54976349  0.32847712     0.32200
H1490       H  0.92034260  0.56875306  0.47319231     0.38100
H1491       H  0.78185966  0.79170218  0.60445579     0.32500
H1492       H  0.75672025  0.80775401  0.37331562     0.31400
H1493       H  0.72785306  0.67600384  0.45094150     0.33100
H1494       H  0.84728065  0.58796352  0.51050418     0.32000
H1495       H  0.75411092  0.63972590  0.59369594     0.36000
H1496       H  0.74794040  0.51792699  0.64382068     0.28800
H1497       H  0.94157441  0.81078461  0.38630173     0.33000
H1498       H  0.90088838  0.64877167  0.50500626     0.35900
H1499       H  0.72964368  0.77166938  0.35183234     0.28500
H1500       H  0.76220214  0.48637193  0.67918614     0.41300
H1501       H  0.92601723  0.64935426  0.58369798     0.31400
H1502       H  0.85572761  0.66797354  0.55429641     0.39000
H1503       H  0.81032903  0.57887057  0.48672666     0.30900
H1504       H  0.95438295  0.56805288  0.37144646     0.30900
H1505       H  0.94059903  0.77298865  0.42125088     0.31200
C1506       C  0.88196314  0.91136425  0.53836099    -0.02300
C1507       C  0.83005742  0.95614070  0.44702595     0.86700
C1508       C  0.86207296  0.95004389  0.47627489    -0.53600
C1509       C  0.85967976  0.91001371  0.50003289     0.09600
C1510       C  0.82432680  0.87734220  0.49067861     0.20500
C1511       C  0.83006491  0.90853849  0.42305772    -0.54300
C1512       C  0.82696471  0.86665055  0.44537682     0.09700
C1513       C  0.79471888  0.95387520  0.47188473    -0.53800
C1514       C  0.79067930  0.91321136  0.49500274     0.10300
H1515       H  0.88327688  0.97812717  0.48085110     0.14800
H1516       H  0.82182729  0.84395442  0.50913101     0.00500
H1517       H  0.83251762  0.90794988  0.39121960     0.15100
H1518       H  0.77401123  0.98299739  0.47036913     0.14900
Zr1519     Zr  0.38412995  0.55773750  0.67633164     2.17500
O1520       O  0.42517464  0.50373869  0.63835754    -0.51200
O1521       O  0.38918658  0.50460591  0.40139424    -0.74400
O1522       O  0.45207674  0.57348934  0.68679712    -0.81100
O1523       O  0.30027785  0.51065932  0.61324145    -0.82900
O1524       O  0.45899635  0.64671758  0.38338286    -0.78500
O1525       O  0.35848625  0.49048606  0.63662303    -0.90200
O1526       O  0.35238692  0.53497609  0.45038728    -0.76100
O1527       O  0.38039726  0.60260846  0.40317451    -0.85600
O1528       O  0.32029171  0.55164258  0.36471413    -0.85300
O1529       O  0.40196667  0.63997875  0.65952626    -0.72100
O1530       O  0.34539364  0.59266133  0.62524340    -0.84200
Zr1531     Zr  0.29907090  0.71771795  0.35717883     2.26400
Zr1532     Zr  0.39808958  0.68437922  0.38672516     2.06300
Zr1533     Zr  0.28108059  0.58759870  0.64720542     2.10000
Zr1534     Zr  0.31626189  0.59932017  0.42318955     1.78800
O1535       O  0.25007547  0.60106850  0.58420621    -0.93000
O1536       O  0.33346800  0.62239880  0.48964396    -0.40800
O1537       O  0.28143620  0.63552633  0.37220749    -0.77400
O1538       O  0.33459917  0.68149037  0.41008919    -0.96100
O1539       O  0.36168843  0.72135878  0.66933042    -0.89400
O1540       O  0.29865403  0.67112658  0.63083680    -0.92300
C1541       C  0.37568829  0.00427723  0.43628531     1.01500
C1542       C  0.32947676  0.98076444  0.61581605     1.14400
C1543       C  0.47222768  0.60768269  0.36807821     1.05200
O1544       O  0.42439662  0.68158234  0.45288305    -0.94400
O1545       O  0.38225949  0.76017875  0.41907633    -0.90200
O1546       O  0.32031875  0.77581973  0.40710696    -0.83300
C1547       C  0.35197836  0.78491392  0.42379614     1.11800
O1548       O  0.39241680  0.62873080  0.55752445    -0.96400
Zr1549     Zr  0.36299587  0.67555711  0.61025359     1.88900
O1550       O  0.30457293  0.78239937  0.64113378    -0.73000
O1551       O  0.44085681  0.74755614  0.69807261    -0.52300
O1552       O  0.42531974  0.70710970  0.59343718    -0.97000
O1553       O  0.32850702  0.69340964  0.54985713    -0.54200
O1554       O  0.35817023  0.76371021  0.60900057    -0.73600
C1555       C  0.33163871  0.79346627  0.61777728     0.98800
O1556       O  0.25040639  0.77892510  0.37000630    -0.62400
O1557       O  0.23937138  0.51988313  0.33290370    -0.57200
O1558       O  0.23433337  0.69225179  0.36430539    -0.93900
O1559       O  0.22008102  0.61717719  0.67536191    -0.92300
O1560       O  0.26883269  0.53554611  0.43031582    -0.92600
O1561       O  0.26387814  0.62901168  0.46289291    -0.91400
C1562       C  0.21068761  0.65797937  0.69201605     1.17600
H1563       H  0.31361389  0.51785112  0.36955360     0.33600
H1564       H  0.33147835  0.69746203  0.43514086     0.44400
H1565       H  0.28149743  0.68526160  0.61193609     0.37900
H1566       H  0.42714496  0.64143234  0.64889872     0.34400
H1567       H  0.32596446  0.59432218  0.50635309     0.26200
H1568       H  0.46231180  0.74733213  0.38254759     0.32200
H1569       H  0.42074731  0.73320993  0.57378574     0.38100
H1570       H  0.28285261  0.50576918  0.43818418     0.32500
H1571       H  0.25480536  0.49153302  0.66907927     0.31400
H1572       H  0.22846686  0.62269697  0.59035955     0.33100
H1573       H  0.34720981  0.70962209  0.53258127     0.32000
H1574       H  0.25179576  0.65468271  0.44663185     0.36000
H1575       H  0.24779238  0.78008048  0.39896639     0.28800
H1576       H  0.44233136  0.48813337  0.65762122     0.33000
H1577       H  0.40226605  0.65305529  0.53851669     0.35900
H1578       H  0.23141263  0.52705495  0.36021226     0.28500
H1579       H  0.26174212  0.81096880  0.36315171     0.41300
H1580       H  0.42723342  0.64628924  0.45888620     0.31400
H1581       H  0.36130843  0.62122872  0.48907296     0.39000
H1582       H  0.31059111  0.71988558  0.55657795     0.30900
H1583       H  0.45436485  0.73280996  0.67553517     0.30900
H1584       H  0.44141787  0.52559420  0.62243176     0.31200
C1585       C  0.38234848  0.88517924  0.50397067    -0.02300
C1586       C  0.33049263  0.84168021  0.59575532     0.86700
C1587       C  0.36261767  0.84734982  0.56650447    -0.53600
C1588       C  0.36042144  0.88720453  0.54250910     0.09600
C1589       C  0.32515503  0.92009788  0.55162257     0.20500
C1590       C  0.33060695  0.88948152  0.61941424    -0.54300
C1591       C  0.32771840  0.93113942  0.59681482     0.09700
C1592       C  0.29523388  0.84389840  0.57081389    -0.53800
C1593       C  0.29138353  0.88442091  0.54752550     0.10300
H1594       H  0.38364202  0.81902682  0.56203461     0.14800
H1595       H  0.32280163  0.95335408  0.53299653     0.00500
H1596       H  0.33293557  0.89037643  0.65125531     0.15100
H1597       H  0.27433386  0.81501916  0.57257731     0.14900
Zr1598     Zr  0.08171811  0.99027969  0.50987431     2.17500
O1599       O  0.04153822  0.54566792  0.47165205    -0.51200
O1600       O  0.07649415  0.54347410  0.56768974    -0.74400
O1601       O  0.01369808  0.97391774  0.51875019    -0.81100
O1602       O  0.16475878  0.53711829  0.44678803    -0.82900
O1603       O  0.00739263  0.90045715  0.54984359    -0.78500
O1604       O  0.10739706  0.55856576  0.47160068    -0.90200
O1605       O  0.11264006  0.51241368  0.61697632    -0.76100
O1606       O  0.08553265  0.94479178  0.56951847    -0.85600
O1607       O  0.14563917  0.99626720  0.53131760    -0.85300
O1608       O  0.06427666  0.90806648  0.49207491    -0.72100
O1609       O  0.12085890  0.95615782  0.45873288    -0.84200
Zr1610     Zr  0.16757456  0.83015534  0.52370271     2.26400
Zr1611     Zr  0.06834515  0.86295975  0.55262854     2.06300
Zr1612     Zr  0.18487796  0.96119533  0.48110786     2.10000
Zr1613     Zr  0.14969081  0.94841749  0.58964520     1.78800
O1614       O  0.21634384  0.94728852  0.41843666    -0.93000
O1615       O  0.13515873  0.92389224  0.65649434    -0.40800
O1616       O  0.18501444  0.91235205  0.53904044    -0.77400
O1617       O  0.13174943  0.86606272  0.57643223    -0.96100
O1618       O  0.10463964  0.82682111  0.50167584    -0.89400
O1619       O  0.16791293  0.87765861  0.46417625    -0.92300
C1620       C  0.08942799  0.54317242  0.60301073     1.01500
C1621       C  0.13669564  0.56714465  0.45030608     1.14400
C1622       C  0.99399605  0.93921474  0.53423339     1.05200
O1623       O  0.04397755  0.86409509  0.61958711    -0.94400
O1624       O  0.08349766  0.78627497  0.58400168    -0.90200
O1625       O  0.14583707  0.77180371  0.57347399    -0.83300
C1626       C  0.11391774  0.76208513  0.58945471     1.11800
O1627       O  0.07738056  0.92454310  0.39102183    -0.96400
Zr1628     Zr  0.10383896  0.87335968  0.44289196     1.88900
O1629       O  0.16078433  0.76516755  0.47505052    -0.73000
O1630       O  0.02393019  0.80168109  0.52870165    -0.52300
O1631       O  0.04188412  0.84305871  0.42351668    -0.97000
O1632       O  0.13791446  0.85397669  0.38259165    -0.54200
O1633       O  0.10850284  0.78510905  0.44095457    -0.73600
C1634       C  0.13426787  0.75468415  0.45088819     0.98800
O1635       O  0.21650104  0.76987258  0.53831979    -0.62400
O1636       O  0.22697835  0.52634827  0.49892836    -0.57200
O1637       O  0.23297307  0.85393725  0.52821750    -0.93900
O1638       O  0.24552162  0.93222700  0.51005085    -0.92300
O1639       O  0.19656234  0.51338519  0.59546900    -0.92600
O1640       O  0.20345922  0.92360304  0.62946636    -0.91400
C1641       C  0.25519457  0.89092102  0.52565570     1.17600
H1642       H  0.15231818  0.52976779  0.53549360     0.33600
H1643       H  0.13465551  0.84985918  0.60144029     0.44400
H1644       H  0.18527707  0.86376166  0.44536002     0.37900
H1645       H  0.03923381  0.90654860  0.48110522     0.34400
H1646       H  0.13745731  0.95402057  0.67251105     0.26200
H1647       H  0.00479815  0.79868113  0.54978999     0.32200
H1648       H  0.04676114  0.82088831  0.40104503     0.38100
H1649       H  0.18276292  0.54203509  0.60598283     0.32500
H1650       H  0.21123367  0.55610030  0.50123843     0.31400
H1651       H  0.23852555  0.92687996  0.42504732     0.33100
H1652       H  0.11940885  0.83589138  0.36632214     0.32000
H1653       H  0.21765862  0.90034303  0.61275505     0.36000
H1654       H  0.21740611  0.76741460  0.56736189     0.28800
H1655       H  0.02448105  0.56159708  0.49083727     0.33000
H1656       H  0.06548629  0.90193969  0.37196193     0.35900
H1657       H  0.23470293  0.51935017  0.52633842     0.28500
H1658       H  0.20636188  0.73785731  0.52967447     0.41300
H1659       H  0.04135852  0.89924233  0.62616737     0.31400
H1660       H  0.10780764  0.91712729  0.65546961     0.39000
H1661       H  0.15680787  0.82890090  0.38984601     0.30900
H1662       H  0.01047486  0.81769745  0.50667559     0.30900
H1663       H  0.02630936  0.02528956  0.45523719     0.31200
C1664       C  0.08342660  0.66247074  0.67048183    -0.02300
C1665       C  0.13546924  0.70623425  0.42927967     0.86700
C1666       C  0.10356916  0.70044280  0.39989462    -0.53600
C1667       C  0.10588016  0.66054048  0.37604719     0.09600
C1668       C  0.14107186  0.62752155  0.38560054     0.20500
C1669       C  0.13516076  0.65860070  0.45323542    -0.54300
C1670       C  0.13831364  0.61673140  0.43093106     0.09700
C1671       C  0.17092270  0.70377094  0.40461699    -0.53800
C1672       C  0.17492899  0.66308948  0.38154817     0.10300
H1673       H  0.08256162  0.72875161  0.39525161     0.14800
H1674       H  0.14350592  0.59415913  0.36713802     0.00500
H1675       H  0.13264641  0.65799138  0.48506894     0.15100
H1676       H  0.19176178  0.73274312  0.40627844     0.14900
C1677       C  0.10241166  0.69476971  0.64249733    -0.13100
C1678       C  0.11173373  0.72339405  0.61748545    -0.14700
C1679       C  0.07977797  0.58141203  0.62914068    -0.13100
C1680       C  0.08005113  0.61533448  0.65136244    -0.14700
C1681       C  0.38559063  0.93215119  0.48458622    -0.13100
C1682       C  0.38551636  0.96610972  0.46239945    -0.14700
C1683       C  0.35397811  0.82368300  0.45164825    -0.13100
C1684       C  0.36324479  0.85264482  0.47635531    -0.14700
C1685       C  0.92081695  0.92941539  0.53291493    -0.13100
C1686       C  0.95373204  0.94045191  0.53213581    -0.14700
C1687       C  0.86370556  0.94433977  0.56633823    -0.13100
C1688       C  0.85373338  0.47464406  0.59183066    -0.14700
C1689       C  0.88459536  0.83046483  0.57991948    -0.13100
C1690       C  0.88468776  0.86429655  0.55762397    -0.14700
C1691       C  0.01237753  0.69259579  0.34307070    -0.13100
C1692       C  0.04528446  0.68154340  0.34252042    -0.14700
C1693       C  0.51250083  0.60594755  0.36625422    -0.13100
C1694       C  0.54545504  0.61679953  0.36705764    -0.14700
C1695       C  0.60321948  0.60230867  0.39958901    -0.13100
C1696       C  0.61244956  0.57359358  0.42453683    -0.14700
C1697       C  0.58159499  0.68198871  0.39147698    -0.13100
C1698       C  0.58212500  0.71560316  0.41389915    -0.14700
C1699       C  0.42098964  0.86616885  0.50894813    -0.13100
C1700       C  0.45384414  0.85481726  0.50951638    -0.14700
Zr1701     Zr  0.58228873  0.80735106  0.86678276     2.17500
O1702       O  0.54245886  0.75336034  0.90612145    -0.51200
O1703       O  0.57784037  0.75428721  0.80903790    -0.74400
O1704       O  0.51432723  0.82217840  0.85668947    -0.81100
O1705       O  0.66501250  0.76056540  0.92999646    -0.82900
O1706       O  0.50804064  0.89595894  0.82611702    -0.78500
O1707       O  0.60785205  0.73895070  0.90477090    -0.90200
O1708       O  0.61359002  0.78579896  0.75957560    -0.76100
O1709       O  0.58665196  0.85205829  0.80690784    -0.85600
O1710       O  0.64641288  0.80149884  0.84610427    -0.85300
O1711       O  0.56441845  0.88947227  0.88386158    -0.72100
O1712       O  0.62077145  0.84216001  0.91812312    -0.84200
Zr1713     Zr  0.66782143  0.96774167  0.85293319     2.26400
Zr1714     Zr  0.56898222  0.93379711  0.82310033     2.06300
Zr1715     Zr  0.68500648  0.83738678  0.89634432     2.10000
Zr1716     Zr  0.65099218  0.84857669  0.78742574     1.78800
O1717       O  0.71551285  0.85099943  0.95956067    -0.93000
O1718       O  0.63662628  0.87391771  0.72074711    -0.40800
O1719       O  0.68564982  0.88557922  0.83815888    -0.77400
O1720       O  0.63268608  0.93080264  0.80013998    -0.96100
O1721       O  0.60457611  0.97089442  0.87420563    -0.89400
O1722       O  0.66752517  0.92086482  0.91270459    -0.92300
C1723       C  0.59056927  0.75486092  0.77365100     1.01500
C1724       C  0.63701399  0.73051369  0.92625160     1.14400
C1725       C  0.49463447  0.85689073  0.84127537     1.05200
O1726       O  0.54465225  0.93160420  0.75616128    -0.94400
O1727       O  0.58445653  0.00971345  0.79086540    -0.90200
O1728       O  0.64661134  0.02481565  0.80203869    -0.83300
C1729       C  0.61448434  0.53531738  0.78704213     1.11800
O1730       O  0.57316092  0.87493387  0.98383493    -0.96400
Zr1731     Zr  0.60319908  0.92490802  0.93331423     1.88900
O1732       O  0.66063214  0.03280861  0.90145093    -0.73000
O1733       O  0.52460493  0.99533144  0.84646521    -0.52300
O1734       O  0.54144963  0.95689526  0.95176724    -0.97000
O1735       O  0.63746828  0.94345462  0.65985787    -0.54200
O1736       O  0.60847083  0.01292606  0.93581743    -0.73600
C1737       C  0.63398497  0.54325803  0.92606619     0.98800
O1738       O  0.71580656  0.02955014  0.83881530    -0.62400
O1739       O  0.72786871  0.77079646  0.87898002    -0.57200
O1740       O  0.73356660  0.94489873  0.84960385    -0.93900
O1741       O  0.74570224  0.86634268  0.86734416    -0.92300
O1742       O  0.69685573  0.78267283  0.78237493    -0.92600
O1743       O  0.70549414  0.87335457  0.74860629    -0.91400
C1744       C  0.75554696  0.90762954  0.85177910     1.17600
H1745       H  0.65314707  0.76766367  0.84162588     0.33600
H1746       H  0.63583050  0.94656776  0.77498994     0.44400
H1747       H  0.68466281  0.93503114  0.93160574     0.37900
H1748       H  0.53924395  0.89082195  0.89450757     0.34400
H1749       H  0.64276095  0.84531289  0.70404030     0.26200
H1750       H  0.50374684  0.99497967  0.82710369     0.32200
H1751       H  0.54631091  0.97910626  0.97421678     0.38100
H1752       H  0.68379428  0.75625298  0.76783774     0.32500
H1753       H  0.71218323  0.74093930  0.87716382     0.31400
H1754       H  0.73667933  0.87348316  0.95368411     0.33100
H1755       H  0.61897264  0.96028580  0.67697481     0.32000
H1756       H  0.72189589  0.89147822  0.76712428     0.36000
H1757       H  0.71818933  0.03039489  0.80981283     0.28800
H1758       H  0.52500676  0.73737567  0.88736716     0.33000
H1759       H  0.56510023  0.89997334  0.67200573     0.35900
H1760       H  0.73551794  0.77711255  0.85143486     0.28500
H1761       H  0.70433076  0.06151170  0.84559819     0.41300
H1762       H  0.54125418  0.89638533  0.75023773     0.32200
H1763       H  0.60879875  0.87553259  0.72071745     0.39000
H1764       H  0.65570965  0.96844239  0.98733386     0.30900
H1765       H  0.51356495  0.98112843  0.87065229     0.30900
H1766       H  0.52643263  0.77529035  0.92218427     0.31200
C1767       C  0.58388554  0.63557411  0.70650785    -0.02300
C1768       C  0.63521923  0.59172766  0.94756889     0.86700
C1769       C  0.60303623  0.59803458  0.97652432    -0.53600
C1770       C  0.60566014  0.63745727  0.66784975     0.09600
C1771       C  0.64081576  0.67042742  0.65810768     0.20500
C1772       C  0.63545913  0.63918811  0.92343776    -0.54300
C1773       C  0.63858297  0.68110004  0.94565468     0.09700
C1774       C  0.67043643  0.59394488  0.97262278    -0.53800
C1775       C  0.67451312  0.63470958  0.99555040     0.10300
H1776       H  0.58177811  0.56998663  0.98100546     0.14800
H1777       H  0.64337256  0.70378443  0.67656012     0.00500
H1778       H  0.63318035  0.63967145  0.89158303     0.15100
H1779       H  0.69113534  0.56479969  0.97123681     0.14900
Zr1780     Zr  0.88379531  0.74065540  0.69988508     2.17500
O1781       O  0.92425878  0.79440855  0.73870531    -0.51200
O1782       O  0.88776420  0.79351979  0.64174867    -0.74400
O1783       O  0.95179529  0.72553660  0.68965747    -0.81100
O1784       O  0.80118056  0.78708793  0.76413563    -0.82900
O1785       O  0.95835922  0.65143730  0.65969210    -0.78500
O1786       O  0.85823917  0.80874970  0.73858268    -0.90200
O1787       O  0.85154199  0.76250969  0.92516467    -0.76100
O1788       O  0.87950322  0.69531971  0.64027027    -0.85600
O1789       O  0.81958733  0.74637710  0.67932078    -0.85300
O1790       O  0.90179575  0.65862400  0.71736614    -0.72100
O1791       O  0.84533037  0.70583014  0.75131669    -0.84200
Zr1792     Zr  0.79862938  0.58004583  0.68669374     2.26400
Zr1793     Zr  0.89748085  0.61369998  0.65688749     2.06300
Zr1794     Zr  0.78101367  0.71068251  0.72983444     2.10000
Zr1795     Zr  0.81504318  0.69893110  0.95320634     1.78800
O1796       O  0.74961449  0.69574187  0.79243849    -0.93000
O1797       O  0.82745898  0.67849402  0.88506642    -0.40800
O1798       O  0.78081903  0.66212403  0.67199213    -0.77400
O1799       O  0.83378611  0.61664038  0.96595274    -0.96100
O1800       O  0.86182171  0.57688976  0.70803790    -0.89400
O1801       O  0.79865718  0.62721607  0.74634495    -0.92300
C1802       C  0.87497489  0.79305496  0.93899424     1.01500
C1803       C  0.82918612  0.81717048  0.76031667     1.14400
C1804       C  0.97161030  0.69072261  0.67455562     1.05200
O1805       O  0.92370143  0.61577746  0.92317208    -0.94400
O1806       O  0.88251608  0.53736969  0.95786513    -0.90200
O1807       O  0.82061206  0.52174340  0.96984749    -0.83300
C1808       C  0.85232760  0.51245005  0.95330774     1.11800
O1809       O  0.89007965  0.67360203  0.81887093    -0.96400
Zr1810     Zr  0.86298838  0.62315658  0.76693484     1.88900
O1811       O  0.80528190  0.51543636  0.73573037    -0.73000
O1812       O  0.94008819  0.55126956  0.68221409    -0.52300
O1813       O  0.92570730  0.59449703  0.78544372    -0.97000
O1814       O  0.82891019  0.60392598  0.82734619    -0.54200
O1815       O  0.85832296  0.53477774  0.76876207    -0.73600
C1816       C  0.83212212  0.50465383  0.75943073     0.98800
O1817       O  0.75040054  0.51944125  0.00388150    -0.62400
O1818       O  0.73876185  0.77790973  0.71227454    -0.57200
O1819       O  0.73343768  0.60453337  0.68055478    -0.93900
O1820       O  0.72019744  0.68176173  0.70082117    -0.92300
O1821       O  0.76738153  0.76270201  0.94909422    -0.92600
O1822       O  0.76082107  0.67011361  0.91586306    -0.91400
C1823       C  0.71084929  0.64103077  0.68402109     1.17600
H1824       H  0.81285720  0.78017232  0.67462094     0.33600
H1825       H  0.83071743  0.60030751  0.94102374     0.44400
H1826       H  0.78154472  0.61305888  0.76531181     0.37900
H1827       H  0.92697183  0.65750141  0.72801924     0.34400
H1828       H  0.82164588  0.70854066  0.86989436     0.26200
H1829       H  0.96103170  0.54998942  0.66297782     0.32200
H1830       H  0.92129788  0.56856871  0.80528521     0.38100
H1831       H  0.78065368  0.79153335  0.93813388     0.32500
H1832       H  0.75491916  0.80722868  0.70948125     0.31400
H1833       H  0.72629900  0.67782725  0.78540617     0.33100
H1834       H  0.84776690  0.58748326  0.84428372     0.32000
H1835       H  0.75199949  0.64062875  0.93012567     0.36000
H1836       H  0.74884238  0.51848421  0.97481585     0.28800
H1837       H  0.94168428  0.81018103  0.71978861     0.33000
H1838       H  0.90137270  0.65064726  0.83807987     0.35900
H1839       H  0.73033005  0.77105857  0.68507053     0.28500
H1840       H  0.76137348  0.48736003  0.01120345     0.41300
H1841       H  0.92104654  0.65022627  0.91452244     0.31400
H1842       H  0.85521733  0.67588557  0.88440275     0.39000
H1843       H  0.81093871  0.57756321  0.82045987     0.30900
H1844       H  0.95134813  0.56597176  0.70607602     0.30900
H1845       H  0.94026507  0.77239916  0.75474129     0.31200
C1846       C  0.88274073  0.91266797  0.87231925    -0.02300
C1847       C  0.83055482  0.95629327  0.78079729     0.86700
C1848       C  0.86270885  0.95060250  0.80997879    -0.53600
C1849       C  0.86051712  0.91078252  0.83395356     0.09600
C1850       C  0.82517780  0.87785934  0.82490693     0.20500
C1851       C  0.83053712  0.90851436  0.75711861    -0.54300
C1852       C  0.82758799  0.86679303  0.77961407     0.09700
C1853       C  0.79532619  0.95415789  0.80587567    -0.53800
C1854       C  0.79151031  0.91370176  0.82928719     0.10300
H1855       H  0.88378142  0.97888362  0.81442036     0.14800
H1856       H  0.82281714  0.84459913  0.84353147     0.00500
H1857       H  0.83280320  0.90770383  0.72527010     0.15100
H1858       H  0.77452390  0.98315540  0.80427930     0.14900
Zr1859     Zr  0.38387425  0.55688153  0.00949757     2.17500
O1860       O  0.42335700  0.49964672  0.97285947    -0.51200
O1861       O  0.38840212  0.50409523  0.73376611    -0.74400
O1862       O  0.45183926  0.57319243  0.01815973    -0.81100
O1863       O  0.30032680  0.51070830  0.94563766    -0.82900
O1864       O  0.45843482  0.64698877  0.71777179    -0.78500
O1865       O  0.35827756  0.49011092  0.96933283    -0.90200
O1866       O  0.35272944  0.53541792  0.78331393    -0.76100
O1867       O  0.37974859  0.60241957  0.73626746    -0.85600
O1868       O  0.32001129  0.55175891  0.69732411    -0.85300
O1869       O  0.40145681  0.63934618  0.99264103    -0.72100
O1870       O  0.34511483  0.59199583  0.95851915    -0.84200
Zr1871     Zr  0.29852117  0.71803112  0.69057219     2.26400
Zr1872     Zr  0.39737790  0.68430265  0.72037813     2.06300
Zr1873     Zr  0.28104921  0.58661097  0.98094162     2.10000
Zr1874     Zr  0.31552507  0.59883049  0.75603157     1.78800
O1875       O  0.24895647  0.60137916  0.91879066    -0.93000
O1876       O  0.32999746  0.62174588  0.82328585    -0.40800
O1877       O  0.28062567  0.63575531  0.70537130    -0.77400
O1878       O  0.33377707  0.68125453  0.74343011    -0.96100
O1879       O  0.36133889  0.72063108  0.00269618    -0.89400
O1880       O  0.29823185  0.67019349  0.96434648    -0.92300
C1881       C  0.37766460  0.00508078  0.76957027     1.01500
C1882       C  0.32923857  0.98073886  0.94963113     1.14400
C1883       C  0.47180083  0.60802804  0.70246090     1.05200
O1884       O  0.42135655  0.68070270  0.78745713    -0.94400
O1885       O  0.38215589  0.76065272  0.75200280    -0.90200
O1886       O  0.32002922  0.77572784  0.74081498    -0.83300
C1887       C  0.35183185  0.78511693  0.75712044     1.11800
O1888       O  0.39208334  0.62630448  0.89197554    -0.96400
Zr1889     Zr  0.36243080  0.67503667  0.94345563     1.88900
O1890       O  0.30543990  0.78228214  0.97493670    -0.73000
O1891       O  0.44055440  0.74553654  0.03019818    -0.52300
O1892       O  0.42400660  0.70698568  0.92436788    -0.97000
O1893       O  0.32709160  0.69401846  0.88376275    -0.54200
O1894       O  0.35866271  0.76333580  0.94218513    -0.73600
C1895       C  0.33230599  0.79325275  0.95122575     0.98800
O1896       O  0.25074056  0.77999568  0.70476103    -0.62400
O1897       O  0.23871448  0.52081500  0.66570737    -0.57200
O1898       O  0.23324149  0.69443219  0.69561003    -0.93900
O1899       O  0.22090692  0.61580226  0.01103764    -0.92300
O1900       O  0.26917268  0.53353477  0.76173313    -0.92600
O1901       O  0.26179560  0.62604783  0.79487300    -0.91400
C1902       C  0.21066145  0.65765582  0.02528946     1.17600
H1903       H  0.31336316  0.51790602  0.70190778     0.33600
H1904       H  0.33066728  0.69721238  0.76848938     0.44400
H1905       H  0.28087402  0.68418092  0.94558681     0.37900
H1906       H  0.42654971  0.64123083  0.98185670     0.34400
H1907       H  0.32653016  0.59158583  0.83907157     0.26200
H1908       H  0.46004643  0.74994884  0.71914060     0.32200
H1909       H  0.41884767  0.73032923  0.90272772     0.38100
H1910       H  0.28248788  0.50633366  0.77505954     0.32500
H1911       H  0.25677724  0.48930883  0.00220347     0.31400
H1912       H  0.22560853  0.61899214  0.92615371     0.33100
H1913       H  0.34559532  0.71054888  0.86644469     0.32000
H1914       H  0.25252622  0.65572745  0.78120119     0.36000
H1915       H  0.24830794  0.78067291  0.73375408     0.28800
H1916       H  0.44063530  0.48491254  0.99244056     0.33000
H1917       H  0.40041217  0.64982165  0.87158917     0.35900
H1918       H  0.23015972  0.52842206  0.69274324     0.28500
H1919       H  0.26236342  0.81193792  0.69811548     0.41300
H1920       H  0.42326287  0.64533127  0.79355801     0.31400
H1921       H  0.35754711  0.62696797  0.82262433     0.39000
H1922       H  0.30926787  0.72039003  0.89102025     0.30900
H1923       H  0.45330566  0.73045115  0.00732535     0.30900
H1924       H  0.43960516  0.52013837  0.95582163     0.31200
C1925       C  0.38277031  0.88540774  0.83727293    -0.02300
C1926       C  0.33102001  0.84156266  0.92911937     0.86700
C1927       C  0.36322255  0.84759280  0.89997604    -0.53600
C1928       C  0.36090402  0.88746959  0.87595037     0.09600
C1929       C  0.32543257  0.92007900  0.88505543     0.20500
C1930       C  0.33082447  0.88932930  0.95284138    -0.54300
C1931       C  0.32774992  0.93107327  0.93036650     0.09700
C1932       C  0.29581773  0.84356529  0.90395391    -0.53800
C1933       C  0.29184404  0.88410256  0.88064474     0.10300
H1934       H  0.38435945  0.81939604  0.89556883     0.14800
H1935       H  0.32301062  0.95336890  0.86647827     0.00500
H1936       H  0.33308963  0.89012537  0.98468878     0.15100
H1937       H  0.27509582  0.81444748  0.90548324     0.14900
Zr1938     Zr  0.08261726  0.99163661  0.84333651     2.17500
O1939       O  0.04084479  0.54587757  0.80598378    -0.51200
O1940       O  0.07903067  0.54588511  0.89961586    -0.74400
O1941       O  0.01442105  0.97647658  0.85264575    -0.81100
O1942       O  0.16561125  0.53863377  0.78009970    -0.82900
O1943       O  0.00825526  0.90349071  0.88442716    -0.78500
O1944       O  0.10722473  0.55846236  0.80310936    -0.90200
O1945       O  0.11340129  0.51314169  0.94954984    -0.76100
O1946       O  0.08728945  0.94709631  0.90328572    -0.85600
O1947       O  0.14690747  0.99724294  0.86370880    -0.85300
O1948       O  0.06432186  0.90952714  0.82622813    -0.72100
O1949       O  0.12084172  0.95632161  0.79189259    -0.84200
Zr1950     Zr  0.16768432  0.83092755  0.85691268     2.26400
Zr1951     Zr  0.06912977  0.86550727  0.88718598     2.06300
Zr1952     Zr  0.18530434  0.96100430  0.81332265     2.10000
Zr1953     Zr  0.15173825  0.95038500  0.92245657     1.78800
O1954       O  0.21627852  0.94575954  0.75057574    -0.93000
O1955       O  0.13818808  0.92807470  0.99006297    -0.40800
O1956       O  0.18595664  0.91306057  0.87156404    -0.77400
O1957       O  0.13289461  0.86809941  0.90995423    -0.96100
O1958       O  0.10434928  0.82794454  0.83601968    -0.89400
O1959       O  0.16732358  0.87763804  0.79706147    -0.92300
C1960       C  0.09132251  0.54495594  0.93513689     1.01500
C1961       C  0.13695856  0.56781552  0.78269988     1.14400
C1962       C  0.99473949  0.94203067  0.86856341     1.05200
O1963       O  0.04614819  0.86862969  0.95460957    -0.94400
O1964       O  0.08389299  0.78881759  0.91849253    -0.90200
O1965       O  0.14596505  0.77344239  0.90721581    -0.83300
C1966       C  0.11417381  0.76428009  0.92362694     1.11800
O1967       O  0.07384839  0.92326338  0.72540756    -0.96400
Zr1968     Zr  0.10288154  0.87355212  0.77676181     1.88900
O1969       O  0.16052347  0.76605828  0.80794243    -0.73000
O1970       O  0.02390915  0.80402914  0.86558487    -0.52300
O1971       O  0.04108923  0.84142449  0.75849682    -0.97000
O1972       O  0.13665530  0.85467121  0.71617223    -0.54200
O1973       O  0.10753641  0.78529822  0.77479864    -0.73600
C1974       C  0.13377110  0.75527412  0.78408570     0.98800
O1975       O  0.21576366  0.76959871  0.87165214    -0.62400
O1976       O  0.22787173  0.52751543  0.83207418    -0.57200
O1977       O  0.23348604  0.85332837  0.86102245    -0.93900
O1978       O  0.24597573  0.93152954  0.84253390    -0.92300
O1979       O  0.19729736  0.51448971  0.92734668    -0.92600
O1980       O  0.20641299  0.92333426  0.95998789    -0.91400
C1981       C  0.25569819  0.89033300  0.85841662     1.17600
H1982       H  0.15295622  0.53080991  0.86853772     0.33600
H1983       H  0.13598355  0.85203575  0.93500092     0.44400
H1984       H  0.18439343  0.86335475  0.77814959     0.37900
H1985       H  0.03913966  0.90808139  0.81559980     0.34400
H1986       H  0.14390344  0.95768065  0.00578936     0.26200
H1987       H  0.00377949  0.80438939  0.88577485     0.32200
H1988       H  0.04593298  0.81904902  0.73614134     0.38100
H1989       H  0.18526797  0.53995906  0.94381813     0.32500
H1990       H  0.21210521  0.55718216  0.83487743     0.31400
H1991       H  0.23940729  0.92737498  0.75747484     0.33100
H1992       H  0.11807504  0.83665812  0.69994888     0.32000
H1993       H  0.21588842  0.89421241  0.94573281     0.36000
H1994       H  0.21756978  0.76850868  0.90070253     0.28800
H1995       H  0.02399297  0.56134722  0.82560861     0.33000
H1996       H  0.06363595  0.90000380  0.70579857     0.35900
H1997       H  0.23596885  0.52014516  0.85930382     0.28500
H1998       H  0.20459716  0.73761872  0.86439694     0.41300
H1999       H  0.04288970  0.90392767  0.96029318     0.31400
H2000       H  0.11040139  0.92565526  0.99032406     0.39000
H2001       H  0.15558953  0.82953506  0.72317596     0.30900
H2002       H  0.01202155  0.81821160  0.84183703     0.30900
H2003       H  0.02662470  0.02785810  0.78978366     0.31200
C2004       C  0.08405365  0.66336165  0.00373474    -0.02300
C2005       C  0.13511898  0.70695419  0.76211204     0.86700
C2006       C  0.10303541  0.70085249  0.73289218    -0.53600
C2007       C  0.10543968  0.66088064  0.70901995     0.09600
C2008       C  0.14089265  0.62835870  0.71823709     0.20500
C2009       C  0.13529949  0.65921119  0.78593180    -0.54300
C2010       C  0.13845691  0.61745958  0.76350465     0.09700
C2011       C  0.17037309  0.70496200  0.73707864    -0.53800
C2012       C  0.17444188  0.66434981  0.71390489     0.10300
H2013       H  0.08186682  0.72898888  0.72838638     0.14800
H2014       H  0.14341662  0.59504556  0.69972931     0.00500
H2015       H  0.13297946  0.65843610  0.81777748     0.15100
H2016       H  0.19104858  0.73414772  0.73859468     0.14900
C2017       C  0.10281726  0.69671154  0.97643811    -0.13100
C2018       C  0.11200239  0.72567281  0.95165771    -0.14700
C2019       C  0.08194364  0.58333083  0.96114478    -0.13100
C2020       C  0.08163691  0.61677618  0.98376989    -0.14700
C2021       C  0.38620298  0.93241025  0.81782514    -0.13100
C2022       C  0.38673806  0.96646329  0.79567011    -0.14700
C2023       C  0.35405065  0.82395805  0.78496027    -0.13100
C2024       C  0.36356926  0.85287940  0.80963986    -0.14700
C2025       C  0.92152451  0.93141147  0.86713682    -0.13100
C2026       C  0.95438603  0.94299191  0.86650195    -0.14700
C2027       C  0.86401583  0.94518070  0.90033252    -0.13100
C2028       C  0.85448831  0.47324451  0.92574656    -0.14700
C2029       C  0.88498555  0.83113174  0.91297918    -0.13100
C2030       C  0.88566492  0.86550284  0.89129736    -0.14700
C2031       C  0.01187653  0.69246652  0.67631871    -0.13100
C2032       C  0.04478025  0.68139909  0.67555490    -0.14700
C2033       C  0.51209799  0.60631383  0.70084141    -0.13100
C2034       C  0.54508079  0.61704868  0.70160106    -0.14700
C2035       C  0.60288073  0.60292172  0.73424481    -0.13100
C2036       C  0.61225042  0.57405863  0.75906179    -0.14700
C2037       C  0.58086512  0.68258691  0.72567489    -0.13100
C2038       C  0.58085652  0.71667805  0.74763870    -0.14700
C2039       C  0.42142357  0.86635520  0.84226037    -0.13100
C2040       C  0.45434178  0.85528765  0.84299596    -0.14700
loop_ 
_geom_bond_atom_site_label_1 
_geom_bond_atom_site_label_2 
_geom_bond_distance 
_geom_bond_site_symmetry_2 
_ccdc_geom_bond_type 
Zr1           O2   2.441       .  S
Zr1           O3   2.442       .  S
Zr1           O4   2.469       .  S
Zr1           O7   2.450       .  S
Zr1           O9   2.381       .  S
Zr1          O10   2.387       .  S
Zr1          O11   2.408       .  S
Zr1          O12   2.411       .  S
O2           H58   0.991       .  S
O2           H66   0.990       .  S
O3           C23   1.284       .  A
O4           C25   1.289       .  A
O5          Zr15   2.492       .  S
O5           C24   1.295       .  A
O6          Zr14   2.398       .  S
O6           C25   1.276       .  A
O7           C24   1.288       .  A
O8          Zr16   2.365       .  S
O8           C23   1.268       .  A
O9          Zr14   2.384       .  S
O9          Zr16   2.380       .  S
O10         Zr15   2.399       .  S
O10         Zr16   2.379       .  S
O10          H45   0.967       .  S
O11         Zr14   2.404       .  S
O11         Zr31   2.385       .  S
O11          H48   0.965       .  S
O12         Zr15   2.399       .  S
O12         Zr31   2.402       .  S
Zr13         O38   2.443       .  S
Zr13         O32   2.438       .  S
Zr13         O40   2.417       .  S
Zr13         O28   2.446       .  S
Zr13         O19   2.384       .  S
Zr13         O20   2.407       .  S
Zr13         O21   2.361       .  S
Zr13         O22   2.401       .  S
Zr14         O33   2.437       .  S
Zr14         O26   2.436       .  S
Zr14         O27   2.411       .  S
Zr14         O20   2.393       .  S
Zr14         O21   2.377       .  S
Zr15         O17   2.435       .  S
Zr15         O39   2.444       .  S
Zr15         O41   2.493       .  S
Zr15         O19   2.378       .  S
Zr15         O22   2.428       .  S
Zr16         O42   2.434       .  S
Zr16         O43   2.438       .  S
Zr16         O18   2.422       .  S
Zr16         O19   2.345       .  S
Zr16         O20   2.382       .  S
O17          H54   0.990       .  S
O18          H49   0.990       .  S
O18          H63   0.988       .  S
O20          H46   0.964       .  S
O21         Zr31   2.371       .  S
O22         Zr31   2.388       .  S
O22          H47   0.966       .  S
C23         C338   1.409       .  S
C24          C73   1.505       .  S
C25         C340   1.432       .  S
O26          H62   0.990       .  S
O27        C1049   1.279       .  A
O28        C1049   1.283       .  A
C29        O1047   1.279       .  A
C29        O1048   1.283       .  A
C29         C336   1.424       .  S
O30         Zr31   2.438       .  S
O30         H399   0.989       .  S
Zr31         O34   2.441       .  S
Zr31        O375   2.442       .  S
Zr31         O36   2.416       .  S
O32        C1057   1.282       .  A
O33          H50   0.991       .  S
O33          H65   0.990       .  S
O34          H51   0.991       .  S
O35        Zr711   2.440       .  S
O35          H55   0.990   1_556  S
O35         H744   0.990       .  S
O36        C1057   1.281       .  A
C37        O1052   1.282       .  A
C37        O1056   1.280       .  A
C37          C68   1.515       .  S
O38          H57   0.990       .  S
O38          H61   0.990       .  S
O39          H53   0.989       .  S
O39          H60   0.990       .  S
O40          C44   1.285       .  A
O41          C44   1.292       .  A
O42          H52   0.990       .  S
O43          H56   0.990       .  S
C44         C154   1.496       .  S
H59         O710   0.990   1_554  S
H64         O375   0.990       .  S
C67          C70   1.524       .  S
C67         C334   1.477       .  S
C67         C335   1.461       .  S
C67         C337   1.443       .  S
C68          C69   1.520       .  S
C68          C74   1.512       .  S
C68          C72   1.534       .  S
C69          H76   1.085       .  S
C69         C410   1.361       .  D
C70          C71   1.573   1_554  S
C70         C749   1.360   1_554  D
C71         C755   1.551       .  S
C71         C753   1.571       .  S
C71          H77   1.110   1_556  S
C72          H78   1.086       .  S
C72          C73   1.377       .  D
C73         C411   1.571       .  S
C74          H79   1.084       .  S
C74          C75   1.367       .  D
C75         C463   1.494       .  S
C75         C411   1.550       .  S
Zr80         O81   2.441       .  S
Zr80         O82   2.451   1_554  S
Zr80         O83   2.475       .  S
Zr80         O86   2.459       .  S
Zr80         O88   2.380   1_554  S
Zr80         O89   2.388       .  S
Zr80         O90   2.405       .  S
Zr80         O91   2.413       .  S
O81         H137   0.990       .  S
O81         H145   0.990       .  S
O82         C782   1.286       .  A
O83         C104   1.290       .  A
O84         Zr94   2.497       .  S
O84         C103   1.296       .  A
O85         Zr93   2.394       .  S
O85         C104   1.276   1_556  A
O86         C103   1.290       .  A
O87         Zr95   2.371       .  S
O87         C102   1.269       .  A
O88         Zr93   2.383       .  S
O88        Zr775   2.378       .  S
O89         Zr94   2.401       .  S
O89        Zr775   2.381   1_554  S
O89         H124   0.966       .  S
O90         Zr93   2.402   1_554  S
O90        Zr110   2.379       .  S
O90         H127   0.965       .  S
O91         Zr94   2.400       .  S
O91        Zr110   2.403       .  S
Zr92        O797   2.444       .  S
Zr92        O111   2.437       .  S
Zr92        O119   2.413       .  S
Zr92        O787   2.449   1_554  S
Zr92         O98   2.384       .  S
Zr92        O100   2.358       .  S
Zr92        O101   2.403       .  S
Zr92        O779   2.408   1_554  S
Zr93        O112   2.436   1_556  S
Zr93        O785   2.438       .  S
Zr93        O786   2.410       .  S
Zr93        O100   2.375   1_556  S
Zr93        O779   2.392       .  S
Zr94         O96   2.436       .  S
Zr94        O118   2.446       .  S
Zr94        O120   2.499       .  S
Zr94         O98   2.375       .  S
Zr94        O101   2.431       .  S
Zr95        O121   2.434       .  S
Zr95        O122   2.436       .  S
Zr95         O97   2.425       .  S
Zr95         O99   2.383       .  S
Zr95        O428   2.376       .  S
Zr95        O429   2.380       .  S
Zr95        O438   2.345       .  S
O96         H133   0.990       .  S
O97         H128   0.990       .  S
O97         H142   0.988       .  S
O98        Zr775   2.342   1_554  S
O99        Zr432   2.411       .  S
O99        Zr433   2.393       .  S
O99         H125   0.964       .  S
O100       Zr110   2.368       .  S
O101       Zr110   2.388       .  S
O101        H126   0.966       .  S
C102        O422   1.285       .  A
C102        C329   1.414       .  S
C103        C152   1.511       .  S
C104        C331   1.431   1_655  S
O105       Zr433   2.436       .  S
O105        H141   0.990       .  S
O106       Zr433   2.409       .  S
O106        C108   1.279       .  A
O107       Zr432   2.446       .  S
O107        C108   1.283       .  A
C108        C328   1.423   1_545  S
O109       Zr110   2.436       .  S
O109        H138   0.990       .  S
Zr110       O113   2.440       .  S
Zr110       O114   2.440       .  S
Zr110       O115   2.415       .  S
O111        C116   1.281       .  A
O112        H129   0.991   1_554  S
O112        H144   0.990       .  S
O113        H130   0.990       .  S
O114        H134   0.991       .  S
O114        H143   0.990       .  S
O115        C116   1.280       .  A
C116       C1167   1.514   1_545  S
O117       Zr432   2.444       .  S
O117        H136   0.990       .  S
O117        H140   0.991   1_545  S
O118        H132   0.989       .  S
O118        H139   0.990       .  S
O119        C123   1.284       .  A
O120        C123   1.293       .  A
O121        H131   0.990       .  S
O122        H135   0.990       .  S
C123        C755   1.495   1_554  S
C146        C149   1.527       .  S
C146        C325   1.476       .  S
C146        C327   1.459       .  S
C146        C330   1.447       .  S
C147       C1136   1.516       .  S
C147        C148   1.520       .  S
C147        C153   1.512       .  S
C147        C151   1.536       .  S
C148        H155   1.085       .  S
C148        C149   1.363       .  D
C149        C150   1.572       .  S
C150        C154   1.553       .  S
C150        C152   1.572       .  S
C150        H156   1.110       .  S
C151        H157   1.086       .  S
C151        C152   1.378       .  D
C153        H158   1.084       .  S
C153        C154   1.366       .  D
Zr159       O160   2.441       .  S
Zr159       O162   2.471       .  S
Zr159       O165   2.454   1_545  S
Zr159       O501   2.448       .  S
Zr159       O169   2.405       .  S
Zr159       O170   2.413       .  S
Zr159       O507   2.382       .  S
Zr159       O508   2.389       .  S
O160        H216   0.991   1_545  S
O160        H224   0.990       .  S
O161       Zr839   2.445       .  S
O161       C1201   1.285       .  A
O162        C523   1.289       .  A
O163       Zr173   2.496       .  S
O163       C1202   1.296   1_545  A
O164       Zr172   2.398       .  S
O164        C183   1.276       .  A
O165       C1202   1.289       .  A
O166       Zr174   2.365       .  S
O166       C1201   1.268       .  A
O167       Zr172   2.387       .  S
O167       Zr174   2.379       .  S
O167       Zr839   2.382       .  S
O168       Zr174   2.379       .  S
O168       Zr839   2.388       .  S
O168       Zr853   2.400   1_554  S
O168        H203   0.967       .  S
O169       Zr189   2.380       .  S
O169       Zr512   2.402       .  S
O169        H206   0.964       .  S
O170       Zr173   2.404       .  S
O170       Zr189   2.404       .  S
Zr171       O196   2.444       .  S
Zr171       O198   2.417       .  S
Zr171       O186   2.447       .  S
Zr171       O870   2.445   1_554  S
Zr171       O177   2.388       .  S
Zr171       O178   2.410       .  S
Zr171       O859   2.359       .  S
Zr171       O860   2.401   1_554  S
Zr172       O184   2.435       .  S
Zr172       O871   2.436       .  S
Zr172       O185   2.408       .  S
Zr172       O178   2.393       .  S
Zr172       O849   2.401   1_554  S
Zr172       O859   2.376       .  S
Zr173       O175   2.436       .  S
Zr173       O537   2.445       .  S
Zr173       O199   2.504       .  S
Zr173       O180   2.429       .  S
Zr173       O508   2.403       .  S
Zr173       O517   2.377       .  S
Zr174       O200   2.432       .  S
Zr174       O201   2.437       .  S
Zr174       O176   2.425       .  S
Zr174       O177   2.348       .  S
Zr174       O178   2.376       .  S
O175        H212   0.990       .  S
O176        H207   0.990       .  S
O176        H221   0.989       .  S
O177       Zr853   2.377   1_554  S
O178        H204   0.964       .  S
O179       Zr189   2.368       .  S
O179       Zr511   2.359       .  S
O179       Zr512   2.375       .  S
O180       Zr189   2.391       .  S
O180       Zr511   2.402       .  S
O180        H205   0.966       .  S
C181       O1181   1.285       .  A
C181       O1186   1.268       .  A
C181        C322   1.412       .  S
C182       O1183   1.295       .  A
C182       O1185   1.289       .  A
C182        C231   1.507       .  S
C183        O842   1.290       .  A
C183        C333   1.432       .  S
O184        H220   0.990       .  S
O185        C187   1.279       .  A
O186        C187   1.283       .  A
C187        C323   1.423       .  S
O188       Zr189   2.438       .  S
O188        H217   0.990       .  S
Zr189       O192   2.442       .  S
Zr189       O193   2.441       .  S
Zr189       O194   2.416       .  S
O190       Zr511   2.443       .  S
O190        C195   1.282       .  A
O191       Zr512   2.435       .  S
O191        H223   0.990       .  S
O191        H548   0.991       .  S
O192        H209   0.990       .  S
O193        H213   0.990       .  S
O193        H222   0.990       .  S
O194        C195   1.280       .  A
C195        C226   1.516       .  S
O196        H215   0.990       .  S
O196        H219   0.991       .  S
O197       Zr853   2.445       .  S
O197        H218   0.990   1_556  S
O197        H891   0.989   1_546  S
O198        C882   1.284       .  A
O199        C202   1.294       .  A
O200        H210   0.990       .  S
O201        H214   0.990       .  S
C202        O538   1.284       .  A
C202        C652   1.499       .  S
H208        O871   0.991       .  S
H211        O537   0.989   1_565  S
C225        C228   1.527       .  S
C225        C321   1.445       .  S
C225        C324   1.460       .  S
C225        C339   1.477       .  S
C226        C227   1.520       .  S
C226        C232   1.513       .  S
C226        C230   1.534       .  S
C227        H234   1.085       .  S
C227        C228   1.361       .  D
C228        C229   1.575       .  S
C229        C233   1.552       .  S
C229        C231   1.572       .  S
C229        H235   1.110       .  S
C230        H236   1.086       .  S
C230        C231   1.377       .  D
C232        H237   1.084       .  S
C232        C233   1.367       .  D
C233        C281   1.497       .  S
Zr238      O1259   2.444       .  S
Zr238       O241   2.469       .  S
Zr238      O1260   2.447       .  S
Zr238      O1264   2.453       .  S
Zr238       O246   2.383       .  S
Zr238       O247   2.391       .  S
Zr238       O248   2.408       .  S
Zr238       O249   2.414       .  S
O239      Zr1258   2.440   1_545  S
O239        H295   0.991       .  S
O239       H1323   0.990       .  S
O240      Zr1258   2.446   1_545  S
O240        C260   1.285       .  A
O241        C262   1.288   1_455  A
O242      Zr1272   2.494   1_545  S
O242        C261   1.295       .  A
O243       Zr251   2.397       .  S
O243        C262   1.276   1_455  A
O244      Zr1258   2.450   1_545  S
O244        C261   1.288       .  A
O245      Zr1273   2.370   1_545  S
O245        C260   1.269       .  A
O246       Zr251   2.384       .  S
O246       Zr253   2.380       .  S
O247       Zr252   2.401       .  S
O247       Zr253   2.380       .  S
O247       H1302   0.967       .  S
O248       Zr251   2.404       .  S
O248       Zr268   2.382       .  S
O248        H285   0.965       .  S
O249       Zr252   2.403       .  S
O249       Zr268   2.404       .  S
Zr250       O275   2.444       .  S
Zr250       O269   2.443       .  S
Zr250       O277   2.417       .  S
Zr250       O265   2.447       .  S
Zr250       O256   2.389       .  S
Zr250       O257   2.412       .  S
Zr250       O258   2.360       .  S
Zr250       O259   2.401       .  S
Zr251       O270   2.436       .  S
Zr251       O263   2.435       .  S
Zr251       O264   2.410       .  S
Zr251       O257   2.393       .  S
Zr251       O258   2.376       .  S
Zr252       O254   2.435       .  S
Zr252      O1296   2.445       .  S
Zr252       O278   2.497       .  S
Zr252      O1262   2.494       .  S
Zr252       O256   2.377       .  S
Zr252       O259   2.428       .  S
Zr253       O280   2.435       .  S
Zr253       O255   2.425       .  S
Zr253      O1299   2.432       .  S
Zr253      O1265   2.367       .  S
Zr253       O256   2.348       .  S
Zr253       O257   2.381       .  S
O254        H291   0.990       .  S
O255        H286   0.991       .  S
O255        H300   0.988       .  S
O257        H283   0.964       .  S
O258       Zr268   2.369       .  S
O259       Zr268   2.390       .  S
O259        H284   0.966       .  S
C260        C319   1.412       .  S
C261        C310   1.506       .  S
C262        C326   1.430       .  S
O263        H299   0.990       .  S
O264        C266   1.279       .  A
O265        C266   1.283       .  A
C266        C318   1.425       .  S
O267       Zr268   2.438       .  S
O267        H296   0.990       .  S
Zr268       O271   2.440       .  S
Zr268       O272   2.440       .  S
Zr268       O273   2.416       .  S
O269        C274   1.282       .  A
O270        H287   0.991       .  S
O270        H302   0.990       .  S
O271        H288   0.990       .  S
O272        H292   0.991       .  S
O272        H301   0.990       .  S
O273        C274   1.280       .  A
C274        C305   1.517       .  S
O275        H294   0.990       .  S
O275        H298   0.990       .  S
O276      Zr1272   2.444   1_545  S
O276        H290   0.989       .  S
O276        H297   0.990       .  S
O277        C281   1.284       .  A
O278        C281   1.293       .  A
O279      Zr1273   2.434   1_545  S
O279        H289   0.990       .  S
O280        H293   0.990       .  S
H282       O1267   0.967   1_545  S
H303       O1259   0.990       .  S
C304        C647   1.526       .  S
C304        C317   1.462       .  S
C304        C320   1.445       .  S
C304        C672   1.475       .  S
C305        C306   1.521       .  S
C305        C311   1.514       .  S
C305        C309   1.534       .  S
C306        H313   1.085       .  S
C306        C307   1.362       .  D
C307        C308   1.571       .  S
C307        C984   1.526       .  S
C308        C312   1.550       .  S
C308        C310   1.571       .  S
C308        H314   1.110       .  S
C309        H315   1.086       .  S
C309        C310   1.377       .  D
C311        H316   1.084       .  S
C311        C312   1.368       .  D
C312        C882   1.494       .  S
C317        C318   1.202       .  T
C319        C320   1.194       .  T
C321        C322   1.195       .  T
C323        C324   1.200       .  T
C325        C326   1.206       .  T
C327       C1348   1.200       .  T
C328       C1347   1.200       .  T
C329        C330   1.196       .  T
C331        C332   1.207       .  T
C332        C984   1.476       .  S
C333        C334   1.207       .  T
C335        C336   1.201       .  T
C337        C338   1.193       .  T
C339        C340   1.207       .  T
Zr341       O342   2.441       .  S
Zr341       O343   2.449       .  S
Zr341       O344   2.470       .  S
Zr341       O347   2.456       .  S
Zr341       O349   2.381       .  S
Zr341       O350   2.386       .  S
Zr341       O351   2.407       .  S
Zr341       O352   2.413       .  S
O342        H398   0.991       .  S
O342        H406   0.990       .  S
O343        C363   1.285       .  A
O344        C365   1.289       .  A
O345       Zr355   2.492       .  S
O345        C364   1.295       .  A
O346       Zr354   2.398       .  S
O346        C365   1.276       .  A
O347        C364   1.289       .  A
O348       Zr356   2.363       .  S
O348        C363   1.268       .  A
O349       Zr354   2.384       .  S
O349       Zr356   2.378       .  S
O350       Zr355   2.402       .  S
O350       Zr356   2.380       .  S
O350        H385   0.967       .  S
O351       Zr354   2.404       .  S
O351       Zr371   2.380       .  S
O351        H388   0.964       .  S
O352       Zr355   2.402       .  S
O352       Zr371   2.403       .  S
Zr353       O378   2.444       .  S
Zr353       O372   2.440       .  S
Zr353       O380   2.418       .  S
Zr353       O368   2.444       .  S
Zr353       O359   2.385       .  S
Zr353       O360   2.411       .  S
Zr353       O361   2.361       .  S
Zr353       O362   2.401       .  S
Zr354       O373   2.437       .  S
Zr354       O366   2.436       .  S
Zr354       O367   2.411       .  S
Zr354       O360   2.392       .  S
Zr354       O361   2.379       .  S
Zr355       O357   2.436       .  S
Zr355       O379   2.444       .  S
Zr355       O381   2.498       .  S
Zr355       O359   2.376       .  S
Zr355       O362   2.428       .  S
Zr356       O382   2.432       .  S
Zr356       O383   2.436       .  S
Zr356       O358   2.428       .  S
Zr356       O359   2.347       .  S
Zr356       O360   2.379       .  S
O357        H394   0.990       .  S
O358        H389   0.990       .  S
O358        H403   0.989       .  S
O360        H386   0.964       .  S
O361       Zr371   2.370       .  S
O362       Zr371   2.390       .  S
O362        H387   0.966       .  S
C363        C678   1.412       .  S
C364        C413   1.508       .  S
C365        C680   1.431       .  S
O366        H402   0.990       .  S
O367       C1389   1.279       .  A
O368       C1389   1.283       .  A
C369       O1387   1.279       .  A
C369       O1388   1.284       .  A
C369        C676   1.426       .  S
O370       Zr371   2.439       .  S
O370        H739   0.990       .  S
Zr371       O374   2.442       .  S
Zr371       O715   2.441       .  S
Zr371       O376   2.414       .  S
O372       C1397   1.282       .  A
O373        H390   0.991       .  S
O373        H405   0.990       .  S
O374        H391   0.990       .  S
O375        H395   0.990       .  S
O376       C1397   1.280       .  A
C377       O1392   1.282       .  A
C377       O1396   1.281       .  A
C377        C408   1.515       .  S
O378        H397   0.990       .  S
O378        H401   0.990       .  S
O379        H393   0.989       .  S
O379        H400   0.990       .  S
O380        C384   1.285       .  A
O381        C384   1.293       .  A
O382        H392   0.990       .  S
O383        H396   0.990       .  S
C384        C494   1.497       .  S
H404        O715   0.990       .  S
C407        C410   1.527       .  S
C407        C674   1.475       .  S
C407        C675   1.463       .  S
C407        C677   1.445       .  S
C408        C409   1.518       .  S
C408        C414   1.514       .  S
C408        C412   1.534       .  S
C409        H416   1.086       .  S
C409        C750   1.362       .  D
C410        C411   1.572       .  S
C411        H417   1.110       .  S
C412        H418   1.086       .  S
C412        C413   1.377       .  D
C413        C751   1.573       .  S
C414        H419   1.085       .  S
C414        C415   1.367       .  D
C415        C803   1.498       .  S
C415        C751   1.553       .  S
Zr420       O421   2.441       .  S
Zr420       O422   2.448       .  S
Zr420       O423   2.471       .  S
Zr420       O426   2.454       .  S
Zr420       O428   2.381       .  S
Zr420       O429   2.388       .  S
Zr420       O430   2.405       .  S
Zr420       O431   2.414       .  S
O421        H477   0.991       .  S
O421        H485   0.990       .  S
O423        C444   1.289       .  A
O424       Zr434   2.493       .  S
O424        C443   1.295       .  A
O425       Zr433   2.391       .  S
O425        C444   1.276       .  A
O426        C443   1.289       .  A
O427       Zr435   2.363       .  S
O427        C442   1.267       .  A
O428       Zr433   2.385       .  S
O429       Zr434   2.401       .  S
O429        H464   0.966       .  S
O430       Zr433   2.401       .  S
O430       Zr450   2.379       .  S
O430        H467   0.965       .  S
O431       Zr434   2.403       .  S
O431       Zr450   2.405       .  S
Zr432       O451   2.438       .  S
Zr432       O459   2.411       .  S
Zr432       O438   2.384       .  S
Zr432       O440   2.357       .  S
Zr432       O441   2.403       .  S
Zr433       O452   2.436       .  S
Zr433       O440   2.372       .  S
Zr434       O436   2.436       .  S
Zr434       O458   2.445       .  S
Zr434       O460   2.496       .  S
Zr434       O438   2.373       .  S
Zr434       O441   2.430       .  S
Zr435       O461   2.433       .  S
Zr435       O462   2.436       .  S
Zr435       O437   2.427       .  S
Zr435       O768   2.377       .  S
Zr435       O769   2.382       .  S
Zr435       O778   2.348       .  S
Zr435       O439   2.382       .  S
O436        H473   0.990       .  S
O437        H468   0.991       .  S
O437        H482   0.989       .  S
O439       Zr772   2.411       .  S
O439       Zr773   2.393       .  S
O439        H465   0.964       .  S
O440       Zr450   2.369       .  S
O441       Zr450   2.390       .  S
O441        H466   0.966       .  S
C442        O762   1.285       .  A
C442        C669   1.410       .  S
C443        C492   1.507       .  S
C444        C671   1.429   1_655  S
O445       Zr773   2.436       .  S
O445        H481   0.990       .  S
O446       Zr773   2.408       .  S
O446        C448   1.279       .  A
O447       Zr772   2.449       .  S
O447        C448   1.284       .  A
C448        C668   1.425   1_545  S
O449       Zr450   2.437       .  S
O449        H478   0.990       .  S
Zr450       O453   2.441       .  S
Zr450       O454   2.439       .  S
Zr450       O455   2.418       .  S
O451        C456   1.281       .  A
O452        H469   0.990       .  S
O452        H484   0.990       .  S
O453        H470   0.990       .  S
O454        H474   0.990       .  S
O454        H483   0.990       .  S
O455        C456   1.280       .  A
C456       C1507   1.515   1_545  S
O457       Zr772   2.444       .  S
O457        H476   0.990       .  S
O457        H480   0.990   1_545  S
O458        H472   0.989       .  S
O458        H479   0.990       .  S
O459        C463   1.283       .  A
O460        C463   1.293       .  A
O461        H471   0.990       .  S
O462        H475   0.990       .  S
C486        C489   1.524       .  S
C486        C665   1.475       .  S
C486        C667   1.460       .  S
C486        C670   1.444       .  S
C487       C1476   1.516       .  S
C487        C488   1.518       .  S
C487        C493   1.514       .  S
C487        C491   1.535       .  S
C488        H495   1.085       .  S
C488        C489   1.361       .  D
C489        C490   1.571       .  S
C490        C494   1.552       .  S
C490        C492   1.571       .  S
C490        H496   1.110       .  S
C491        H497   1.086       .  S
C491        C492   1.377       .  D
C493        H498   1.084       .  S
C493        C494   1.368       .  D
Zr499       O500   2.441       .  S
Zr499       O841   2.452       .  S
Zr499       O502   2.474       .  S
Zr499       O505   2.450   1_545  S
Zr499       O847   2.378       .  S
Zr499       O848   2.388       .  S
Zr499       O509   2.405       .  S
Zr499       O510   2.414       .  S
O500        H556   0.991   1_545  S
O500        H564   0.990       .  S
O501       C1541   1.285       .  A
O502        C863   1.290       .  A
O503       Zr513   2.490       .  S
O503       C1542   1.294   1_545  A
O504       Zr512   2.397       .  S
O504        C523   1.276       .  A
O505       C1542   1.288       .  A
O506       Zr514   2.366       .  S
O506       C1541   1.268       .  A
O507       Zr512   2.385       .  S
O507       Zr514   2.378       .  S
O508       Zr514   2.381       .  S
O508        H543   0.966       .  S
O509       Zr852   2.402       .  S
O509       Zr529   2.383       .  S
O509        H546   0.965       .  S
O510       Zr513   2.402       .  S
O510       Zr529   2.403       .  S
Zr511       O536   2.443       .  S
Zr511       O538   2.414       .  S
Zr511       O526   2.447       .  S
Zr511       O517   2.386       .  S
Zr511       O518   2.410       .  S
Zr512       O524   2.435       .  S
Zr512       O525   2.409       .  S
Zr512       O518   2.392       .  S
Zr513       O515   2.436       .  S
Zr513       O877   2.444       .  S
Zr513       O539   2.498       .  S
Zr513       O848   2.401       .  S
Zr513       O857   2.375       .  S
Zr513       O520   2.429       .  S
Zr514       O540   2.432       .  S
Zr514       O541   2.437       .  S
Zr514       O516   2.424       .  S
Zr514       O517   2.347       .  S
Zr514       O518   2.380       .  S
O515        H552   0.990       .  S
O516        H547   0.991       .  S
O516        H561   0.988       .  S
O518        H544   0.964       .  S
O519       Zr851   2.355       .  S
O519       Zr852   2.371       .  S
O519       Zr529   2.367       .  S
O520       Zr851   2.403       .  S
O520       Zr529   2.391       .  S
O520        H545   0.966       .  S
C521       O1521   1.285       .  A
C521       O1526   1.267       .  A
C521        C662   1.411       .  S
C522       O1523   1.295       .  A
C522       O1525   1.289       .  A
C522        C571   1.507       .  S
C523        C673   1.431       .  S
O524        H560   0.990       .  S
O525        C527   1.279       .  A
O526        C527   1.284       .  A
C527        C663   1.424       .  S
O528       Zr529   2.437       .  S
O528        H557   0.990       .  S
Zr529       O532   2.440       .  S
Zr529       O533   2.440       .  S
Zr529       O534   2.419       .  S
O530       Zr851   2.442       .  S
O530        C535   1.282       .  A
O531       Zr852   2.436       .  S
O531        H888   0.990       .  S
O531        H563   0.990       .  S
O532        H549   0.990       .  S
O533        H553   0.990       .  S
O533        H562   0.990       .  S
O534        C535   1.281       .  A
C535        C566   1.517       .  S
O536        H555   0.990       .  S
O536        H559   0.990       .  S
O537        H558   0.990       .  S
O539        C542   1.294       .  A
O540        H550   0.990       .  S
O541        H554   0.990       .  S
C542        O878   1.282       .  A
C542        C992   1.495       .  S
H551        O877   0.989   1_565  S
C565        C568   1.526       .  S
C565        C661   1.444       .  S
C565        C664   1.461       .  S
C565        C679   1.475       .  S
C566        C567   1.519       .  S
C566        C572   1.513       .  S
C566        C570   1.536       .  S
C567        H574   1.085       .  S
C567        C568   1.361       .  D
C568        C569   1.572       .  S
C569        C573   1.552       .  S
C569        C571   1.571       .  S
C569        H575   1.110       .  S
C570        H576   1.086       .  S
C570        C571   1.378       .  D
C572        H577   1.085       .  S
C572        C573   1.368       .  D
C573        C621   1.496       .  S
Zr578      O1599   2.443       .  S
Zr578      O1600   2.450       .  S
Zr578       O581   2.470       .  S
Zr578      O1604   2.450       .  S
Zr578       O586   2.382       .  S
Zr578       O587   2.389       .  S
Zr578       O588   2.406       .  S
Zr578       O589   2.415       .  S
O579      Zr1598   2.440   1_545  S
O579        H635   0.991       .  S
O579       H1663   0.990       .  S
O580      Zr1598   2.448   1_545  S
O580        C600   1.285       .  A
O581        C602   1.289   1_455  A
O582      Zr1612   2.493   1_545  S
O582        C601   1.295       .  A
O583       Zr591   2.396       .  S
O583        C602   1.276   1_455  A
O584      Zr1598   2.455   1_545  S
O584        C601   1.289       .  A
O585      Zr1613   2.365   1_545  S
O585        C600   1.268       .  A
O586       Zr591   2.385       .  S
O586       Zr593   2.380       .  S
O587       Zr592   2.402       .  S
O587       Zr593   2.380       .  S
O587       H1642   0.966       .  S
O588       Zr591   2.403       .  S
O588       Zr608   2.382       .  S
O588        H625   0.965       .  S
O589       Zr592   2.402       .  S
O589       Zr608   2.405       .  S
Zr590       O615   2.444       .  S
Zr590       O609   2.443       .  S
Zr590       O617   2.412       .  S
Zr590       O605   2.441       .  S
Zr590       O596   2.384       .  S
Zr590       O597   2.411       .  S
Zr590       O598   2.358       .  S
Zr590       O599   2.402       .  S
Zr591       O610   2.435       .  S
Zr591       O603   2.435       .  S
Zr591       O604   2.413       .  S
Zr591       O597   2.390       .  S
Zr591       O598   2.374       .  S
Zr592       O594   2.436       .  S
Zr592      O1636   2.443       .  S
Zr592      O1602   2.495       .  S
Zr592       O618   2.499       .  S
Zr592       O596   2.374       .  S
Zr592       O599   2.429       .  S
Zr593      O1639   2.433       .  S
Zr593       O620   2.436       .  S
Zr593       O595   2.423       .  S
Zr593      O1605   2.369       .  S
Zr593       O596   2.345       .  S
Zr593       O597   2.383       .  S
O594        H631   0.990       .  S
O595        H626   0.991       .  S
O595        H640   0.988       .  S
O597        H623   0.964       .  S
O598       Zr608   2.369       .  S
O599       Zr608   2.391       .  S
O599        H624   0.966       .  S
C600        C659   1.412       .  S
C601        C650   1.507       .  S
C602        C666   1.430       .  S
O603        H639   0.990       .  S
O604        C606   1.279       .  A
O605        C606   1.282       .  A
C606        C658   1.423       .  S
O607       Zr608   2.439       .  S
O607        H636   0.990       .  S
Zr608       O611   2.440       .  S
Zr608       O612   2.441       .  S
Zr608       O613   2.418       .  S
O609        C614   1.283       .  A
O610        H627   0.991       .  S
O610        H642   0.990       .  S
O611        H628   0.990       .  S
O612        H632   0.991       .  S
O612        H641   0.990       .  S
O613        C614   1.280       .  A
C614        C645   1.517       .  S
O615        H634   0.991       .  S
O615        H638   0.990       .  S
O616      Zr1612   2.446   1_545  S
O616        H630   0.989       .  S
O616        H637   0.990       .  S
O617        C621   1.284       .  A
O618        C621   1.293       .  A
O619      Zr1613   2.432   1_545  S
O619        H629   0.990       .  S
O620        H633   0.990       .  S
H622       O1607   0.967   1_545  S
H643       O1599   0.990       .  S
C644        C987   1.525       .  S
C644        C657   1.460       .  S
C644        C660   1.446       .  S
C644       C1012   1.473       .  S
C645        C646   1.519       .  S
C645        C651   1.515       .  S
C645        C649   1.534       .  S
C646        H653   1.086       .  S
C646        C647   1.362       .  D
C647        C648   1.573       .  S
C648        C652   1.551       .  S
C648        C650   1.571       .  S
C648        H654   1.110       .  S
C649        H655   1.086       .  S
C649        C650   1.376       .  D
C651        H656   1.084       .  S
C651        C652   1.369       .  D
C657        C658   1.200       .  T
C659        C660   1.195       .  T
C661        C662   1.194       .  T
C663        C664   1.201       .  T
C665        C666   1.206       .  T
C667       C1688   1.200       .  T
C668       C1687   1.201       .  T
C669        C670   1.194       .  T
C671        C672   1.206       .  T
C673        C674   1.206       .  T
C675        C676   1.202       .  T
C677        C678   1.195       .  T
C679        C680   1.206       .  T
Zr681       O682   2.440       .  S
Zr681       O683   2.445       .  S
Zr681       O684   2.471       .  S
Zr681       O687   2.453       .  S
Zr681       O689   2.380       .  S
Zr681       O690   2.389       .  S
Zr681       O691   2.407       .  S
Zr681       O692   2.413       .  S
O682        H738   0.991       .  S
O682        H746   0.990       .  S
O683        C703   1.284       .  A
O684        C705   1.289       .  A
O685       Zr695   2.491       .  S
O685        C704   1.295       .  A
O686       Zr694   2.394       .  S
O686        C705   1.275       .  A
O687        C704   1.288       .  A
O688       Zr696   2.364       .  S
O688        C703   1.267       .  A
O689       Zr694   2.385       .  S
O689       Zr696   2.377       .  S
O690       Zr695   2.403       .  S
O690       Zr696   2.381       .  S
O690        H725   0.967       .  S
O691       Zr694   2.404       .  S
O691       Zr711   2.383       .  S
O691        H728   0.964       .  S
O692       Zr695   2.401       .  S
O692       Zr711   2.402       .  S
Zr693       O718   2.443       .  S
Zr693       O712   2.437       .  S
Zr693       O720   2.414       .  S
Zr693       O708   2.445       .  S
Zr693       O699   2.383       .  S
Zr693       O700   2.409       .  S
Zr693       O701   2.358       .  S
Zr693       O702   2.404       .  S
Zr694       O713   2.435       .  S
Zr694       O706   2.436       .  S
Zr694       O707   2.410       .  S
Zr694       O700   2.390       .  S
Zr694       O701   2.373       .  S
Zr695       O697   2.437       .  S
Zr695       O719   2.445       .  S
Zr695       O721   2.497       .  S
Zr695       O699   2.375       .  S
Zr695       O702   2.430       .  S
Zr696       O722   2.432       .  S
Zr696       O723   2.437       .  S
Zr696       O698   2.427       .  S
Zr696       O699   2.346       .  S
Zr696       O700   2.380       .  S
O697        H734   0.990       .  S
O698        H729   0.991       .  S
O698        H743   0.989       .  S
O700        H726   0.964       .  S
O701       Zr711   2.370       .  S
O702       Zr711   2.391       .  S
O702        H727   0.966       .  S
C703       C1018   1.411       .  S
C704        C753   1.506       .  S
C705       C1020   1.430       .  S
O706        H742   0.990       .  S
O707       C1729   1.279       .  A
O708       C1729   1.283       .  A
C709       O1727   1.279       .  A
C709       O1728   1.283       .  A
C709       C1016   1.423       .  S
O710       Zr711   2.439       .  S
Zr711       O714   2.441       .  S
Zr711       O716   2.419       .  S
O712       C1737   1.281       .  A
O713        H730   0.991       .  S
O713        H745   0.990       .  S
O714        H731   0.990       .  S
O715        H735   0.990       .  S
O716       C1737   1.281       .  A
C717       O1732   1.281       .  A
C717       O1736   1.280       .  A
C717        C748   1.513       .  S
O718        H737   0.990       .  S
O718        H741   0.990       .  S
O719        H733   0.989       .  S
O719        H740   0.990       .  S
O720        C724   1.284       .  A
O721        C724   1.293       .  A
O722        H732   0.990       .  S
O723        H736   0.990       .  S
C724        C834   1.496       .  S
C747        C750   1.525       .  S
C747       C1014   1.476       .  S
C747       C1015   1.460       .  S
C747       C1017   1.445       .  S
C748        C749   1.518       .  S
C748        C754   1.514       .  S
C748        C752   1.534       .  S
C749        H756   1.086       .  S
C750        C751   1.573       .  S
C751        H757   1.110       .  S
C752        H758   1.086       .  S
C752        C753   1.377       .  D
C754        H759   1.085       .  S
C754        C755   1.368       .  D
Zr760       O761   2.443       .  S
Zr760       O762   2.445       .  S
Zr760       O763   2.469       .  S
Zr760       O766   2.455       .  S
Zr760       O768   2.382       .  S
Zr760       O769   2.388       .  S
Zr760       O770   2.405       .  S
Zr760       O771   2.411       .  S
O761        H817   0.991       .  S
O761        H825   0.990       .  S
O763        C784   1.288       .  A
O764       Zr774   2.499       .  S
O764        C783   1.296       .  A
O765       Zr773   2.393       .  S
O765        C784   1.275       .  A
O766        C783   1.289       .  A
O767       Zr775   2.364       .  S
O767        C782   1.268       .  A
O768       Zr773   2.385       .  S
O769       Zr774   2.402       .  S
O769        H804   0.966       .  S
O770       Zr773   2.402       .  S
O770       Zr790   2.377       .  S
O770        H807   0.964       .  S
O771       Zr774   2.400       .  S
O771       Zr790   2.402       .  S
Zr772       O791   2.444       .  S
Zr772       O799   2.416       .  S
Zr772       O778   2.387       .  S
Zr772       O780   2.358       .  S
Zr772       O781   2.402       .  S
Zr773       O792   2.435       .  S
Zr773       O780   2.375       .  S
Zr774       O776   2.437       .  S
Zr774       O798   2.444       .  S
Zr774       O800   2.499       .  S
Zr774       O778   2.377       .  S
Zr774       O781   2.430       .  S
Zr775       O801   2.432       .  S
Zr775       O802   2.435       .  S
Zr775       O777   2.426       .  S
Zr775       O779   2.379       .  S
O776        H813   0.990       .  S
O777        H808   0.990       .  S
O777        H822   0.989       .  S
O779        H805   0.964       .  S
O780       Zr790   2.370       .  S
O781       Zr790   2.388       .  S
O781        H806   0.966       .  S
C782       C1009   1.412       .  S
C783        C832   1.510       .  S
C784       C1011   1.428   1_655  S
O785        H821   0.990       .  S
O786        C788   1.279       .  A
O787        C788   1.284       .  A
C788       C1008   1.425   1_545  S
O789       Zr790   2.437       .  S
O789        H818   0.990       .  S
Zr790       O793   2.441       .  S
Zr790       O794   2.439       .  S
Zr790       O795   2.415       .  S
O791        C796   1.283       .  A
O792        H809   0.991       .  S
O792        H824   0.990       .  S
O793        H810   0.990       .  S
O794        H814   0.990       .  S
O794        H823   0.990       .  S
O795        C796   1.280       .  A
C796       C1847   1.516   1_545  S
O797        H816   0.990   1_554  S
O797        H820   0.990   1_545  S
O798        H812   0.989       .  S
O798        H819   0.990       .  S
O799        C803   1.285       .  A
O800        C803   1.294       .  A
O801        H811   0.990       .  S
O802        H815   0.991       .  S
C826        C829   1.527       .  S
C826       C1005   1.477       .  S
C826       C1007   1.462       .  S
C826       C1010   1.446       .  S
C827       C1816   1.516       .  S
C827        C828   1.519       .  S
C827        C833   1.513       .  S
C827        C831   1.536       .  S
C828        H835   1.086       .  S
C828        C829   1.362       .  D
C829        C830   1.574       .  S
C830        C834   1.552       .  S
C830        C832   1.573       .  S
C830        H836   1.110       .  S
C831        H837   1.086       .  S
C831        C832   1.377       .  D
C833        H838   1.084       .  S
C833        C834   1.367       .  D
Zr839       O840   2.440   1_554  S
Zr839       O842   2.472       .  S
Zr839       O845   2.454   1_544  S
Zr839       O849   2.406   1_554  S
Zr839       O850   2.411   1_554  S
O840        H896   0.990   1_545  S
O840        H904   0.990       .  S
O841       C1881   1.286       .  A
O843       Zr853   2.494       .  S
O843       C1882   1.295   1_545  A
O844       Zr852   2.391       .  S
O844        C863   1.275       .  A
O845       C1882   1.289       .  A
O846       Zr854   2.372       .  S
O846       C1881   1.269       .  A
O847       Zr852   2.384       .  S
O847       Zr854   2.376       .  S
O848       Zr854   2.379       .  S
O848        H883   0.967       .  S
O849       Zr869   2.380       .  S
O849        H886   0.964       .  S
O850       Zr853   2.399       .  S
O850       Zr869   2.403       .  S
Zr851       O876   2.444       .  S
Zr851       O878   2.408       .  S
Zr851       O866   2.446       .  S
Zr851       O857   2.389       .  S
Zr851       O858   2.409       .  S
Zr852       O864   2.434       .  S
Zr852       O865   2.408       .  S
Zr852       O858   2.391       .  S
Zr853       O855   2.436       .  S
Zr853       O879   2.496   1_556  S
Zr853       O860   2.429       .  S
Zr854       O880   2.436       .  S
Zr854       O881   2.437       .  S
Zr854       O856   2.424       .  S
Zr854       O857   2.350       .  S
Zr854       O858   2.384       .  S
O855        H892   0.990       .  S
O856        H887   0.990       .  S
O856        H901   0.989       .  S
O858        H884   0.963       .  S
O859       Zr869   2.367   1_554  S
O860       Zr869   2.390       .  S
O860        H885   0.966       .  S
C861       O1861   1.285       .  A
C861       O1866   1.268       .  A
C861       C1002   1.410       .  S
C862       O1863   1.295       .  A
C862       O1865   1.288       .  A
C862        C911   1.506       .  S
C863       C1013   1.431       .  S
O864        H900   0.990       .  S
O865        C867   1.279       .  A
O866        C867   1.283       .  A
C867       C1003   1.424       .  S
O868       Zr869   2.437       .  S
O868        H897   0.990       .  S
Zr869       O872   2.440       .  S
Zr869       O873   2.438       .  S
Zr869       O874   2.417       .  S
O870        C875   1.282       .  A
O871        H903   0.990       .  S
O872        H889   0.990       .  S
O873        H893   0.991       .  S
O873        H902   0.990       .  S
O874        C875   1.280       .  A
C875        C906   1.517       .  S
O876        H895   0.990       .  S
O876        H899   0.991       .  S
O877        H898   0.990       .  S
O879        C882   1.293       .  A
O880        H890   0.990       .  S
O881        H894   0.990       .  S
C905        C908   1.524       .  S
C905       C1001   1.444       .  S
C905       C1004   1.461       .  S
C905       C1019   1.476       .  S
C906        C907   1.518       .  S
C906        C912   1.514       .  S
C906        C910   1.534       .  S
C907        H914   1.085       .  S
C907        C908   1.362       .  D
C908        C909   1.573       .  S
C909        C913   1.550       .  S
C909        C911   1.570       .  S
C909        H915   1.110       .  S
C910        H916   1.086       .  S
C910        C911   1.377       .  D
C912        H917   1.084       .  S
C912        C913   1.368       .  D
C913        C961   1.496       .  S
Zr918      O1939   2.442       .  S
Zr918      O1940   2.444       .  S
Zr918       O921   2.476       .  S
Zr918      O1944   2.451       .  S
Zr918       O926   2.384       .  S
Zr918       O927   2.391       .  S
Zr918       O928   2.403       .  S
Zr918       O929   2.415       .  S
O919      Zr1938   2.440   1_545  S
O919        H975   0.991       .  S
O919       H2003   0.990       .  S
O920      Zr1938   2.449   1_545  S
O920        C940   1.286       .  A
O921        C942   1.290   1_455  A
O922      Zr1952   2.492   1_545  S
O922        C941   1.295       .  A
O923       Zr931   2.392       .  S
O923        C942   1.275   1_455  A
O924      Zr1938   2.450   1_545  S
O924        C941   1.288       .  A
O925      Zr1953   2.368   1_545  S
O925        C940   1.269       .  A
O926       Zr931   2.387       .  S
O926       Zr933   2.381       .  S
O927       Zr932   2.401       .  S
O927       Zr933   2.381       .  S
O927       H1982   0.967       .  S
O928       Zr931   2.402       .  S
O928       Zr948   2.381       .  S
O928        H965   0.965       .  S
O929       Zr932   2.404       .  S
O929       Zr948   2.407       .  S
Zr930       O955   2.442       .  S
Zr930       O949   2.444       .  S
Zr930       O957   2.411       .  S
Zr930       O945   2.449       .  S
Zr930       O936   2.387       .  S
Zr930       O937   2.411       .  S
Zr930       O938   2.358       .  S
Zr930       O939   2.403       .  S
Zr931       O950   2.437       .  S
Zr931       O943   2.435       .  S
Zr931       O944   2.411       .  S
Zr931       O937   2.391       .  S
Zr931       O938   2.374       .  S
Zr932       O934   2.436       .  S
Zr932      O1976   2.445       .  S
Zr932      O1942   2.493       .  S
Zr932       O958   2.498       .  S
Zr932       O936   2.376       .  S
Zr932       O939   2.429       .  S
Zr933      O1979   2.432       .  S
Zr933       O960   2.438       .  S
Zr933       O935   2.427       .  S
Zr933      O1945   2.368       .  S
Zr933       O936   2.347       .  S
Zr933       O937   2.383       .  S
O934        H971   0.990       .  S
O935        H966   0.991   1_556  S
O935        H980   0.988       .  S
O937        H963   0.964       .  S
O938       Zr948   2.369       .  S
O939       Zr948   2.390       .  S
O939        H964   0.966       .  S
C940        C999   1.413       .  S
C941        C990   1.504       .  S
C942       C1006   1.432       .  S
O943        H979   0.990       .  S
O944        C946   1.279       .  A
O945        C946   1.284       .  A
C946        C998   1.426       .  S
O947       Zr948   2.439       .  S
O947        H976   0.990       .  S
Zr948       O951   2.441       .  S
Zr948       O952   2.440       .  S
Zr948       O953   2.421       .  S
O949        C954   1.283       .  A
O950        H967   0.991       .  S
O950        H982   0.990       .  S
O951        H968   0.990       .  S
O952        H972   0.990       .  S
O952        H981   0.990       .  S
O953        C954   1.281       .  A
C954        C985   1.519       .  S
O955        H974   0.990       .  S
O955        H978   0.990       .  S
O956      Zr1952   2.445   1_545  S
O956        H970   0.989       .  S
O956        H977   0.990       .  S
O957        C961   1.283       .  A
O958        C961   1.293       .  A
O959      Zr1953   2.433   1_545  S
O959        H969   0.990       .  S
O960        H973   0.990       .  S
H962       O1947   0.966   1_545  S
H983       O1939   0.990       .  S
C984        C997   1.463   1_554  S
C984       C1000   1.447   1_554  S
C985        C986   1.520       .  S
C985        C991   1.513       .  S
C985        C989   1.535       .  S
C986        H993   1.086       .  S
C986        C987   1.363       .  D
C987        C988   1.571       .  S
C988        C992   1.549       .  S
C988        C990   1.568       .  S
C988        H994   1.110       .  S
C989        H995   1.086       .  S
C989        C990   1.377       .  D
C991        H996   1.083       .  S
C991        C992   1.369       .  D
C997        C998   1.202       .  T
C999       C1000   1.195       .  T
C1001      C1002   1.194       .  T
C1003      C1004   1.201       .  T
C1005      C1006   1.207       .  T
C1007      C2028   1.202       .  T
C1008      C2027   1.201       .  T
C1009      C1010   1.195       .  T
C1011      C1012   1.205       .  T
C1013      C1014   1.207       .  T
C1015      C1016   1.200       .  T
C1017      C1018   1.195       .  T
C1019      C1020   1.206       .  T
Zr1021     O1022   2.442       .  S
Zr1021     O1023   2.448       .  S
Zr1021     O1024   2.474       .  S
Zr1021     O1027   2.453       .  S
Zr1021     O1029   2.381       .  S
Zr1021     O1030   2.389       .  S
Zr1021     O1031   2.404       .  S
Zr1021     O1032   2.413       .  S
O1022      H1078   0.991       .  S
O1022      H1086   0.990       .  S
O1023      C1043   1.285       .  A
O1024      C1045   1.290       .  A
O1025     Zr1035   2.491       .  S
O1025      C1044   1.295       .  A
O1026     Zr1034   2.393       .  S
O1026      C1045   1.275       .  A
O1027      C1044   1.288       .  A
O1028     Zr1036   2.361       .  S
O1028      C1043   1.267       .  A
O1029     Zr1034   2.387       .  S
O1029     Zr1036   2.380       .  S
O1030     Zr1035   2.402       .  S
O1030     Zr1036   2.381       .  S
O1030      H1065   0.967       .  S
O1031     Zr1034   2.402       .  S
O1031     Zr1051   2.382       .  S
O1031      H1068   0.965       .  S
O1032     Zr1035   2.403       .  S
O1032     Zr1051   2.405       .  S
Zr1033     O1058   2.442   1_565  S
Zr1033     O1052   2.439   1_565  S
Zr1033     O1060   2.412       .  S
Zr1033     O1048   2.443   1_565  S
Zr1033     O1039   2.385       .  S
Zr1033     O1040   2.408       .  S
Zr1033     O1041   2.358       .  S
Zr1033     O1042   2.401       .  S
Zr1034     O1053   2.437       .  S
Zr1034     O1046   2.435       .  S
Zr1034     O1047   2.413   1_565  S
Zr1034     O1040   2.390       .  S
Zr1034     O1041   2.370       .  S
Zr1035     O1037   2.435       .  S
Zr1035     O1059   2.444       .  S
Zr1035     O1061   2.497       .  S
Zr1035     O1039   2.378       .  S
Zr1035     O1042   2.429       .  S
Zr1036     O1062   2.432       .  S
Zr1036     O1063   2.437       .  S
Zr1036     O1038   2.425       .  S
Zr1036     O1039   2.346       .  S
Zr1036     O1040   2.376       .  S
O1037      H1074   0.990       .  S
O1038      H1069   0.991       .  S
O1038      H1083   0.988       .  S
O1040      H1066   0.964       .  S
O1041     Zr1051   2.367       .  S
O1042     Zr1051   2.390       .  S
O1042      H1067   0.966       .  S
C1043      C1358   1.410       .  S
C1044      C1093   1.505       .  S
C1045      C1360   1.431       .  S
O1046      H1082   0.990       .  S
C1049      C1356   1.424       .  S
O1050     Zr1051   2.439       .  S
O1050      H1419   0.990       .  S
Zr1051     O1054   2.441       .  S
Zr1051     O1395   2.440       .  S
Zr1051     O1056   2.416   1_565  S
O1053      H1070   0.991       .  S
O1053      H1085   0.990       .  S
O1054      H1071   0.990       .  S
O1055     Zr1731   2.440       .  S
O1055      H1075   0.990   1_556  S
O1055      H1764   0.990       .  S
C1057      C1088   1.514       .  S
O1058      H1077   0.990       .  S
O1058      H1081   0.990       .  S
O1059      H1073   0.989       .  S
O1059      H1080   0.990       .  S
O1060      C1064   1.283       .  A
O1061      C1064   1.293       .  A
O1062      H1072   0.990       .  S
O1063      H1076   0.991       .  S
C1064      C1174   1.497       .  S
H1079      O1730   0.990   1_554  S
H1084      O1395   0.990       .  S
C1087      C1090   1.525       .  S
C1087      C1354   1.475       .  S
C1087      C1355   1.461       .  S
C1087      C1357   1.444       .  S
C1088      C1089   1.519       .  S
C1088      C1094   1.514       .  S
C1088      C1092   1.534       .  S
C1089      H1096   1.086       .  S
C1089      C1430   1.361       .  D
C1090      C1091   1.573   1_554  S
C1090      C1769   1.361   1_554  D
C1091      C1775   1.552       .  S
C1091      C1773   1.570       .  S
C1091      H1097   1.110   1_556  S
C1092      H1098   1.086       .  S
C1092      C1093   1.376       .  D
C1093      C1431   1.570       .  S
C1094      H1099   1.084       .  S
C1094      C1095   1.368       .  D
C1095      C1483   1.495       .  S
C1095      C1431   1.550       .  S
Zr1100     O1101   2.442       .  S
Zr1100     O1102   2.443   1_554  S
Zr1100     O1103   2.474       .  S
Zr1100     O1106   2.455       .  S
Zr1100     O1108   2.382   1_554  S
Zr1100     O1109   2.388       .  S
Zr1100     O1110   2.404       .  S
Zr1100     O1111   2.412       .  S
O1101      H1157   0.991       .  S
O1101      H1165   0.990       .  S
O1102      C1802   1.284       .  A
O1103      C1124   1.290       .  A
O1104     Zr1114   2.493       .  S
O1104      C1123   1.295       .  A
O1105     Zr1113   2.396       .  S
O1105      C1124   1.276   1_556  A
O1106      C1123   1.289       .  A
O1107     Zr1115   2.365       .  S
O1107      C1122   1.268       .  A
O1108     Zr1113   2.385       .  S
O1108     Zr1795   2.380       .  S
O1109     Zr1114   2.402       .  S
O1109     Zr1795   2.380   1_554  S
O1109      H1144   0.967       .  S
O1110     Zr1113   2.403   1_554  S
O1110     Zr1130   2.380       .  S
O1110      H1147   0.965       .  S
O1111     Zr1114   2.402       .  S
O1111     Zr1130   2.402       .  S
Zr1112     O1817   2.443       .  S
Zr1112     O1131   2.441       .  S
Zr1112     O1139   2.419       .  S
Zr1112     O1807   2.449   1_554  S
Zr1112     O1118   2.384       .  S
Zr1112     O1799   2.411   1_554  S
Zr1112     O1120   2.357       .  S
Zr1112     O1121   2.403       .  S
Zr1113     O1132   2.435   1_556  S
Zr1113     O1805   2.436       .  S
Zr1113     O1806   2.408       .  S
Zr1113     O1799   2.394       .  S
Zr1113     O1120   2.375   1_556  S
Zr1114     O1116   2.436       .  S
Zr1114     O1138   2.445       .  S
Zr1114     O1140   2.499       .  S
Zr1114     O1118   2.374       .  S
Zr1114     O1121   2.429       .  S
Zr1115     O1141   2.432       .  S
Zr1115     O1142   2.436       .  S
Zr1115     O1117   2.426       .  S
Zr1115     O1448   2.378       .  S
Zr1115     O1449   2.379       .  S
Zr1115     O1458   2.349       .  S
Zr1115     O1119   2.378       .  S
O1116      H1153   0.990       .  S
O1117      H1148   0.990       .  S
O1117      H1162   0.989       .  S
O1118     Zr1795   2.342   1_554  S
O1119     Zr1452   2.412       .  S
O1119     Zr1453   2.393       .  S
O1119      H1145   0.964       .  S
O1120     Zr1130   2.370       .  S
O1121     Zr1130   2.389       .  S
O1121      H1146   0.966       .  S
C1122      O1442   1.285       .  A
C1122      C1349   1.411       .  S
C1123      C1172   1.506       .  S
C1124      C1351   1.432   1_655  S
O1125     Zr1453   2.435       .  S
O1125      H1161   0.990       .  S
O1126     Zr1453   2.412       .  S
O1126      C1128   1.279       .  A
O1127     Zr1452   2.441       .  S
O1127      C1128   1.282       .  A
C1128      C1348   1.422       .  S
O1129     Zr1130   2.438       .  S
O1129      H1158   0.990       .  S
Zr1130     O1133   2.441       .  S
Zr1130     O1134   2.440       .  S
Zr1130     O1135   2.417       .  S
O1131      C1136   1.283       .  A
O1132      H1149   0.991   1_554  S
O1132      H1164   0.990       .  S
O1133      H1150   0.990       .  S
O1134      H1154   0.990       .  S
O1134      H1163   0.990       .  S
O1135      C1136   1.281       .  A
O1137     Zr1452   2.444       .  S
O1137      H1156   0.990       .  S
O1137      H1160   0.991       .  S
O1138      H1152   0.989       .  S
O1138      H1159   0.990       .  S
O1139      C1143   1.285       .  A
O1140      C1143   1.294       .  A
O1141      H1151   0.990       .  S
O1142      H1155   0.990       .  S
C1143      C1775   1.497   1_554  S
C1166      C1169   1.525       .  S
C1166      C1345   1.476       .  S
C1166      C1347   1.461       .  S
C1166      C1350   1.444       .  S
C1167      C1168   1.518       .  S
C1167      C1173   1.513       .  S
C1167      C1171   1.533       .  S
C1168      H1175   1.086       .  S
C1168      C1169   1.361       .  D
C1169      C1170   1.574       .  S
C1170      C1174   1.551       .  S
C1170      C1172   1.572       .  S
C1170      H1176   1.110       .  S
C1171      H1177   1.086       .  S
C1171      C1172   1.376       .  D
C1173      H1178   1.083       .  S
C1173      C1174   1.368       .  D
Zr1179     O1180   2.441       .  S
Zr1179     O1521   2.447       .  S
Zr1179     O1182   2.473       .  S
Zr1179     O1185   2.454       .  S
Zr1179     O1527   2.380       .  S
Zr1179     O1528   2.389       .  S
Zr1179     O1189   2.405       .  S
Zr1179     O1190   2.413       .  S
O1180      H1236   0.991       .  S
O1180      H1244   0.990       .  S
O1181     Zr1859   2.447       .  S
O1182      C1543   1.290       .  A
O1183     Zr1193   2.493       .  S
O1184     Zr1192   2.395       .  S
O1184      C1203   1.276       .  A
O1186     Zr1194   2.366       .  S
O1187     Zr1859   2.381       .  S
O1187     Zr1192   2.383       .  S
O1187     Zr1194   2.377       .  S
O1188     Zr1859   2.387       .  S
O1188     Zr1873   2.401   1_554  S
O1188     Zr1194   2.380       .  S
O1188      H1223   0.967       .  S
O1189     Zr1532   2.402       .  S
O1189     Zr1209   2.381       .  S
O1189      H1226   0.964       .  S
O1190     Zr1193   2.402       .  S
O1190     Zr1209   2.403       .  S
Zr1191     O1216   2.443       .  S
Zr1191     O1890   2.450   1_554  S
Zr1191     O1218   2.417       .  S
Zr1191     O1206   2.447       .  S
Zr1191     O1197   2.390       .  S
Zr1191     O1198   2.411       .  S
Zr1191     O1879   2.357       .  S
Zr1191     O1880   2.400   1_554  S
Zr1192     O1891   2.435       .  S
Zr1192     O1204   2.436       .  S
Zr1192     O1205   2.407       .  S
Zr1192     O1869   2.402   1_554  S
Zr1192     O1198   2.391       .  S
Zr1192     O1879   2.376       .  S
Zr1193     O1195   2.436       .  S
Zr1193     O1557   2.443       .  S
Zr1193     O1219   2.500       .  S
Zr1193     O1528   2.403       .  S
Zr1193     O1537   2.375       .  S
Zr1193     O1200   2.429       .  S
Zr1194     O1220   2.431       .  S
Zr1194     O1221   2.436       .  S
Zr1194     O1196   2.426       .  S
Zr1194     O1197   2.348       .  S
Zr1194     O1198   2.377       .  S
O1195      H1232   0.990       .  S
O1196      H1227   0.991       .  S
O1196      H1241   0.988       .  S
O1197     Zr1873   2.377   1_554  S
O1198      H1224   0.964       .  S
O1199     Zr1531   2.359       .  S
O1199     Zr1532   2.375       .  S
O1199     Zr1209   2.369       .  S
O1200     Zr1531   2.402       .  S
O1200     Zr1209   2.391       .  S
O1200      H1225   0.966       .  S
C1201      C1342   1.411   1_545  S
C1202      C1251   1.508       .  S
C1203      O1862   1.289       .  A
C1203      C1353   1.430       .  S
O1204      H1240   0.990       .  S
O1205      C1207   1.278       .  A
O1206      C1207   1.283       .  A
C1207      C1343   1.423       .  S
O1208     Zr1209   2.436       .  S
O1208      H1237   0.990       .  S
Zr1209     O1212   2.440       .  S
Zr1209     O1213   2.442       .  S
Zr1209     O1214   2.418       .  S
O1210     Zr1531   2.442       .  S
O1210      C1215   1.282       .  A
O1211     Zr1532   2.437       .  S
O1211      H1568   0.991       .  S
O1211      H1243   0.990       .  S
O1212      H1229   0.990       .  S
O1213      H1233   0.990       .  S
O1213      H1242   0.990       .  S
O1214      C1215   1.281       .  A
C1215      C1246   1.517       .  S
O1216      H1235   0.990       .  S
O1216      H1239   0.991       .  S
O1217     Zr1873   2.446       .  S
O1217      H1911   0.989   1_556  S
O1217      H1238   0.990   1_556  S
O1218      C1902   1.284       .  A
O1219      C1222   1.294       .  A
O1220      H1230   0.990       .  S
O1221      H1234   0.990       .  S
C1222      O1558   1.283       .  A
C1222      C1672   1.496       .  S
H1228      O1891   0.991       .  S
H1231      O1557   0.989       .  S
C1245      C1248   1.524       .  S
C1245      C1341   1.445       .  S
C1245      C1344   1.461       .  S
C1245      C1359   1.476       .  S
C1246      C1247   1.518       .  S
C1246      C1252   1.514       .  S
C1246      C1250   1.535       .  S
C1247      H1254   1.086       .  S
C1247      C1248   1.362       .  D
C1248      C1249   1.572       .  S
C1249      C1253   1.551       .  S
C1249      C1251   1.571       .  S
C1249      H1255   1.110       .  S
C1250      H1256   1.086       .  S
C1250      C1251   1.377       .  D
C1252      H1257   1.084       .  S
C1252      C1253   1.368       .  D
C1253      C1301   1.496       .  S
Zr1258     O1261   2.472       .  S
Zr1258     O1266   2.382       .  S
Zr1258     O1267   2.388       .  S
Zr1258     O1268   2.405       .  S
Zr1258     O1269   2.413       .  S
O1259      H1315   0.991       .  S
O1260      C1280   1.285       .  A
O1261      C1282   1.290   1_455  A
O1262      C1281   1.295       .  A
O1263     Zr1271   2.394       .  S
O1263      C1282   1.275   1_455  A
O1264      C1281   1.289       .  A
O1265      C1280   1.268       .  A
O1266     Zr1271   2.385       .  S
O1266     Zr1273   2.378       .  S
O1267     Zr1272   2.400       .  S
O1267     Zr1273   2.380       .  S
O1268     Zr1271   2.404       .  S
O1268     Zr1288   2.381       .  S
O1268      H1305   0.964       .  S
O1269     Zr1272   2.402       .  S
O1269     Zr1288   2.405       .  S
Zr1270     O1295   2.444       .  S
Zr1270     O1289   2.442       .  S
Zr1270     O1297   2.412       .  S
Zr1270     O1285   2.448       .  S
Zr1270     O1276   2.388       .  S
Zr1270     O1277   2.409       .  S
Zr1270     O1278   2.357       .  S
Zr1270     O1279   2.401       .  S
Zr1271     O1290   2.436       .  S
Zr1271     O1283   2.435       .  S
Zr1271     O1284   2.411       .  S
Zr1271     O1277   2.390       .  S
Zr1271     O1278   2.376       .  S
Zr1272     O1274   2.435       .  S
Zr1272     O1298   2.498       .  S
Zr1272     O1276   2.375       .  S
Zr1272     O1279   2.429       .  S
Zr1273     O1300   2.436       .  S
Zr1273     O1275   2.422       .  S
Zr1273     O1276   2.349       .  S
Zr1273     O1277   2.383       .  S
O1274      H1311   0.990       .  S
O1275      H1306   0.990       .  S
O1275      H1320   0.988       .  S
O1277      H1303   0.964       .  S
O1278     Zr1288   2.368       .  S
O1279     Zr1288   2.390       .  S
O1279      H1304   0.966       .  S
C1280      C1339   1.411       .  S
C1281      C1330   1.507       .  S
C1282      C1346   1.431       .  S
O1283      H1319   0.990       .  S
O1284      C1286   1.279       .  A
O1285      C1286   1.284       .  A
C1286      C1338   1.426       .  S
O1287     Zr1288   2.437       .  S
O1287      H1316   0.990       .  S
Zr1288     O1291   2.440       .  S
Zr1288     O1292   2.441       .  S
Zr1288     O1293   2.418       .  S
O1289      C1294   1.282       .  A
O1290      H1307   0.991       .  S
O1290      H1322   0.990       .  S
O1291      H1308   0.990       .  S
O1292      H1312   0.990       .  S
O1292      H1321   0.990       .  S
O1293      C1294   1.280       .  A
C1294      C1325   1.517       .  S
O1295      H1314   0.990       .  S
O1295      H1318   0.990       .  S
O1296      H1310   0.989       .  S
O1296      H1317   0.990       .  S
O1297      C1301   1.284       .  A
O1298      C1301   1.293       .  A
O1299      H1309   0.990       .  S
O1300      H1313   0.990       .  S
C1324      C1667   1.527       .  S
C1324      C1337   1.462       .  S
C1324      C1340   1.445       .  S
C1324      C1692   1.476       .  S
C1325      C1326   1.520       .  S
C1325      C1331   1.515       .  S
C1325      C1329   1.535       .  S
C1326      H1333   1.086       .  S
C1326      C1327   1.362       .  D
C1327      C2004   1.526       .  S
C1327      C1328   1.573       .  S
C1328      C1332   1.551       .  S
C1328      C1330   1.571       .  S
C1328      H1334   1.110       .  S
C1329      H1335   1.086       .  S
C1329      C1330   1.377       .  D
C1331      H1336   1.084       .  S
C1331      C1332   1.368       .  D
C1332      C1902   1.496       .  S
C1337      C1338   1.202       .  T
C1339      C1340   1.194       .  T
C1341      C1342   1.194       .  T
C1343      C1344   1.200       .  T
C1345      C1346   1.206       .  T
C1349      C1350   1.194       .  T
C1351      C1352   1.207       .  T
C1352      C2004   1.476       .  S
C1353      C1354   1.206       .  T
C1355      C1356   1.201       .  T
C1357      C1358   1.194       .  T
C1359      C1360   1.207       .  T
Zr1361     O1362   2.442       .  S
Zr1361     O1363   2.446       .  S
Zr1361     O1364   2.469       .  S
Zr1361     O1367   2.448       .  S
Zr1361     O1369   2.381       .  S
Zr1361     O1370   2.388       .  S
Zr1361     O1371   2.405       .  S
Zr1361     O1372   2.412       .  S
O1362      H1418   0.991       .  S
O1362      H1426   0.990       .  S
O1363      C1383   1.285       .  A
O1364      C1385   1.289       .  A
O1365     Zr1375   2.495       .  S
O1365      C1384   1.295       .  A
O1366     Zr1374   2.398       .  S
O1366      C1385   1.276       .  A
O1367      C1384   1.288       .  A
O1368     Zr1376   2.362       .  S
O1368      C1383   1.268       .  A
O1369     Zr1374   2.386       .  S
O1369     Zr1376   2.380       .  S
O1370     Zr1375   2.401       .  S
O1370     Zr1376   2.381       .  S
O1370      H1405   0.967       .  S
O1371     Zr1374   2.402       .  S
O1371     Zr1391   2.384       .  S
O1371      H1408   0.964       .  S
O1372     Zr1375   2.399       .  S
O1372     Zr1391   2.404       .  S
Zr1373     O1398   2.443   1_565  S
Zr1373     O1392   2.439   1_565  S
Zr1373     O1400   2.417       .  S
Zr1373     O1388   2.447   1_565  S
Zr1373     O1379   2.382       .  S
Zr1373     O1380   2.409       .  S
Zr1373     O1381   2.359       .  S
Zr1373     O1382   2.403       .  S
Zr1374     O1393   2.435       .  S
Zr1374     O1386   2.435       .  S
Zr1374     O1387   2.412   1_565  S
Zr1374     O1380   2.392       .  S
Zr1374     O1381   2.376       .  S
Zr1375     O1377   2.435       .  S
Zr1375     O1399   2.444       .  S
Zr1375     O1401   2.501       .  S
Zr1375     O1379   2.375       .  S
Zr1375     O1382   2.429       .  S
Zr1376     O1402   2.431       .  S
Zr1376     O1403   2.437       .  S
Zr1376     O1378   2.424       .  S
Zr1376     O1379   2.342       .  S
Zr1376     O1380   2.378       .  S
O1377      H1414   0.990       .  S
O1378      H1409   0.991       .  S
O1378      H1423   0.988       .  S
O1380      H1406   0.964       .  S
O1381     Zr1391   2.369       .  S
O1382     Zr1391   2.390       .  S
O1382      H1407   0.966       .  S
C1383      C1698   1.410       .  S
C1384      C1433   1.506       .  S
C1385      C1700   1.431       .  S
O1386      H1422   0.990       .  S
C1389      C1696   1.423       .  S
O1390     Zr1391   2.438       .  S
O1390      H1759   0.990       .  S
Zr1391     O1394   2.441       .  S
Zr1391     O1735   2.442       .  S
Zr1391     O1396   2.418   1_565  S
O1393      H1410   0.991       .  S
O1393      H1425   0.990       .  S
O1394      H1411   0.990       .  S
O1395      H1415   0.990       .  S
C1397      C1428   1.514       .  S
O1398      H1417   0.990       .  S
O1398      H1421   0.990       .  S
O1399      H1413   0.989       .  S
O1399      H1420   0.990       .  S
O1400      C1404   1.285       .  A
O1401      C1404   1.294       .  A
O1402      H1412   0.990       .  S
O1403      H1416   0.990       .  S
C1404      C1514   1.497       .  S
H1424      O1735   0.990       .  S
C1427      C1430   1.524       .  S
C1427      C1694   1.476       .  S
C1427      C1695   1.461       .  S
C1427      C1697   1.444       .  S
C1428      C1429   1.519       .  S
C1428      C1434   1.514       .  S
C1428      C1432   1.533       .  S
C1429      H1436   1.086       .  S
C1429      C1770   1.361       .  D
C1430      C1431   1.572       .  S
C1431      H1437   1.110       .  S
C1432      H1438   1.086       .  S
C1432      C1433   1.376       .  D
C1433      C1771   1.572       .  S
C1434      H1439   1.084       .  S
C1434      C1435   1.368       .  D
C1435      C1823   1.497       .  S
C1435      C1771   1.551       .  S
Zr1440     O1441   2.441       .  S
Zr1440     O1442   2.445       .  S
Zr1440     O1443   2.471       .  S
Zr1440     O1446   2.453       .  S
Zr1440     O1448   2.382       .  S
Zr1440     O1449   2.387       .  S
Zr1440     O1450   2.405       .  S
Zr1440     O1451   2.410       .  S
O1441      H1497   0.990       .  S
O1441      H1505   0.990       .  S
O1443      C1464   1.289       .  A
O1444     Zr1454   2.490       .  S
O1444      C1463   1.294       .  A
O1445     Zr1453   2.394       .  S
O1445      C1464   1.276       .  A
O1446      C1463   1.289       .  A
O1447     Zr1455   2.363       .  S
O1447      C1462   1.268       .  A
O1448     Zr1453   2.385       .  S
O1449     Zr1454   2.402       .  S
O1449      H1484   0.967       .  S
O1450     Zr1453   2.402       .  S
O1450     Zr1470   2.381       .  S
O1450      H1487   0.965       .  S
O1451     Zr1454   2.401       .  S
O1451     Zr1470   2.403       .  S
Zr1452     O1471   2.440       .  S
Zr1452     O1479   2.414       .  S
Zr1452     O1458   2.387       .  S
Zr1452     O1460   2.360       .  S
Zr1452     O1461   2.400       .  S
Zr1453     O1472   2.436       .  S
Zr1453     O1460   2.375       .  S
Zr1454     O1456   2.435       .  S
Zr1454     O1478   2.446       .  S
Zr1454     O1480   2.496       .  S
Zr1454     O1458   2.379       .  S
Zr1454     O1461   2.429       .  S
Zr1455     O1481   2.433       .  S
Zr1455     O1482   2.435       .  S
Zr1455     O1457   2.423       .  S
Zr1455     O1788   2.379       .  S
Zr1455     O1789   2.380       .  S
Zr1455     O1798   2.342       .  S
Zr1455     O1459   2.379       .  S
O1456      H1493   0.990       .  S
O1457      H1488   0.990       .  S
O1457      H1502   0.989       .  S
O1459     Zr1792   2.407       .  S
O1459     Zr1793   2.392       .  S
O1459      H1485   0.964       .  S
O1460     Zr1470   2.367       .  S
O1461     Zr1470   2.390       .  S
O1461      H1486   0.966       .  S
C1462      O1782   1.286       .  A
C1462      C1689   1.412       .  S
C1463      C1512   1.505       .  S
C1464      C1691   1.430   1_655  S
O1465     Zr1793   2.437       .  S
O1465      H1501   0.990       .  S
O1466     Zr1793   2.408       .  S
O1466      C1468   1.279       .  A
O1467     Zr1792   2.445       .  S
O1467      C1468   1.283       .  A
C1468      C1688   1.422       .  S
O1469     Zr1470   2.438       .  S
O1469      H1498   0.990       .  S
Zr1470     O1473   2.441       .  S
Zr1470     O1474   2.438       .  S
Zr1470     O1475   2.419       .  S
O1471      C1476   1.281       .  A
O1472      H1489   0.991       .  S
O1472      H1504   0.990       .  S
O1473      H1490   0.990       .  S
O1474      H1494   0.991       .  S
O1474      H1503   0.989       .  S
O1475      C1476   1.281       .  A
O1477     Zr1792   2.443       .  S
O1477      H1496   0.990       .  S
O1477      H1500   0.991       .  S
O1478      H1492   0.989       .  S
O1478      H1499   0.990       .  S
O1479      C1483   1.284       .  A
O1480      C1483   1.293       .  A
O1481      H1491   0.990       .  S
O1482      H1495   0.990       .  S
C1506      C1509   1.525       .  S
C1506      C1685   1.476       .  S
C1506      C1687   1.462       .  S
C1506      C1690   1.446       .  S
C1507      C1508   1.519       .  S
C1507      C1513   1.513       .  S
C1507      C1511   1.535       .  S
C1508      H1515   1.086       .  S
C1508      C1509   1.362       .  D
C1509      C1510   1.572       .  S
C1510      C1514   1.551       .  S
C1510      C1512   1.571       .  S
C1510      H1516   1.110       .  S
C1511      H1517   1.086       .  S
C1511      C1512   1.377       .  D
C1513      H1518   1.084       .  S
C1513      C1514   1.368       .  D
Zr1519     O1520   2.442       .  S
Zr1519     O1861   2.445       .  S
Zr1519     O1522   2.475       .  S
Zr1519     O1525   2.455       .  S
Zr1519     O1867   2.381       .  S
Zr1519     O1868   2.390       .  S
Zr1519     O1529   2.402       .  S
Zr1519     O1530   2.412       .  S
O1520      H1576   0.991       .  S
O1520      H1584   0.990       .  S
O1522      C1883   1.290       .  A
O1523     Zr1533   2.493       .  S
O1524     Zr1532   2.396       .  S
O1524      C1543   1.276       .  A
O1526     Zr1534   2.363       .  S
O1527     Zr1532   2.386       .  S
O1527     Zr1534   2.377       .  S
O1528     Zr1534   2.381       .  S
O1528      H1563   0.967       .  S
O1529     Zr1872   2.403       .  S
O1529     Zr1549   2.380       .  S
O1529      H1566   0.964       .  S
O1530     Zr1533   2.405       .  S
O1530     Zr1549   2.403       .  S
Zr1531     O1556   2.443       .  S
Zr1531     O1558   2.412       .  S
Zr1531     O1546   2.443       .  S
Zr1531     O1537   2.385       .  S
Zr1531     O1538   2.409       .  S
Zr1532     O1544   2.437       .  S
Zr1532     O1545   2.411       .  S
Zr1532     O1538   2.390       .  S
Zr1533     O1535   2.436       .  S
Zr1533     O1897   2.445       .  S
Zr1533     O1559   2.501       .  S
Zr1533     O1868   2.402       .  S
Zr1533     O1877   2.376       .  S
Zr1533     O1540   2.429       .  S
Zr1534     O1560   2.433       .  S
Zr1534     O1561   2.436       .  S
Zr1534     O1536   2.424       .  S
Zr1534     O1537   2.347       .  S
Zr1534     O1538   2.378       .  S
O1535      H1572   0.990       .  S
O1536      H1567   0.990       .  S
O1536      H1581   0.989       .  S
O1538      H1564   0.964       .  S
O1539     Zr1871   2.356       .  S
O1539     Zr1872   2.375       .  S
O1539     Zr1549   2.367       .  S
O1540     Zr1871   2.402       .  S
O1540     Zr1549   2.391       .  S
O1540      H1565   0.966       .  S
C1541      C1682   1.413   1_545  S
C1542      C1591   1.503       .  S
C1543      C1693   1.431       .  S
O1544      H1580   0.990       .  S
O1545      C1547   1.279       .  A
O1546      C1547   1.283       .  A
C1547      C1683   1.423       .  S
O1548     Zr1549   2.438       .  S
O1548      H1577   0.990       .  S
Zr1549     O1552   2.441       .  S
Zr1549     O1553   2.440       .  S
Zr1549     O1554   2.414       .  S
O1550     Zr1871   2.441       .  S
O1550      C1555   1.282       .  A
O1551     Zr1872   2.436       .  S
O1551      H1908   0.991       .  S
O1551      H1583   0.990       .  S
O1552      H1569   0.990       .  S
O1553      H1573   0.990       .  S
O1553      H1582   0.990       .  S
O1554      C1555   1.279       .  A
C1555      C1586   1.515       .  S
O1556      H1575   0.990       .  S
O1556      H1579   0.991       .  S
O1557      H1578   0.990       .  S
O1559      C1562   1.294       .  A
O1560      H1570   0.990       .  S
O1561      H1574   0.990       .  S
C1562      O1898   1.283       .  A
C1562      C2012   1.496       .  S
H1571      O1897   0.989       .  S
C1585      C1588   1.525       .  S
C1585      C1681   1.446       .  S
C1585      C1684   1.460       .  S
C1585      C1699   1.476       .  S
C1586      C1587   1.520       .  S
C1586      C1592   1.513       .  S
C1586      C1590   1.534       .  S
C1587      H1594   1.085       .  S
C1587      C1588   1.362       .  D
C1588      C1589   1.571       .  S
C1589      C1593   1.551       .  S
C1589      C1591   1.569       .  S
C1589      H1595   1.110       .  S
C1590      H1596   1.086       .  S
C1590      C1591   1.376       .  D
C1592      H1597   1.084       .  S
C1592      C1593   1.367       .  D
C1593      C1641   1.495       .  S
Zr1598     O1601   2.473       .  S
Zr1598     O1606   2.382       .  S
Zr1598     O1607   2.388       .  S
Zr1598     O1608   2.406       .  S
Zr1598     O1609   2.413       .  S
O1599      H1655   0.991       .  S
O1600      C1620   1.286       .  A
O1601      C1622   1.290   1_455  A
O1602      C1621   1.296       .  A
O1603     Zr1611   2.395       .  S
O1603      C1622   1.276   1_455  A
O1604      C1621   1.288       .  A
O1605      C1620   1.269       .  A
O1606     Zr1611   2.387       .  S
O1606     Zr1613   2.379       .  S
O1607     Zr1612   2.402       .  S
O1607     Zr1613   2.379       .  S
O1608     Zr1611   2.403       .  S
O1608     Zr1628   2.381       .  S
O1608      H1645   0.965       .  S
O1609     Zr1612   2.400       .  S
O1609     Zr1628   2.402       .  S
Zr1610     O1635   2.444       .  S
Zr1610     O1629   2.439       .  S
Zr1610     O1637   2.414       .  S
Zr1610     O1625   2.448       .  S
Zr1610     O1616   2.386       .  S
Zr1610     O1617   2.407       .  S
Zr1610     O1618   2.357       .  S
Zr1610     O1619   2.403       .  S
Zr1611     O1630   2.439       .  S
Zr1611     O1623   2.435       .  S
Zr1611     O1624   2.411       .  S
Zr1611     O1617   2.393       .  S
Zr1611     O1618   2.374       .  S
Zr1612     O1614   2.436       .  S
Zr1612     O1638   2.495       .  S
Zr1612     O1616   2.378       .  S
Zr1612     O1619   2.429       .  S
Zr1613     O1640   2.436       .  S
Zr1613     O1615   2.425       .  S
Zr1613     O1616   2.346       .  S
Zr1613     O1617   2.380       .  S
O1614      H1651   0.990       .  S
O1615      H1646   0.990       .  S
O1615      H1660   0.989       .  S
O1617      H1643   0.964       .  S
O1618     Zr1628   2.368       .  S
O1619     Zr1628   2.389       .  S
O1619      H1644   0.966       .  S
C1620      C1679   1.414       .  S
C1621      C1670   1.507       .  S
C1622      C1686   1.431       .  S
O1623      H1659   0.990       .  S
O1624      C1626   1.279       .  A
O1625      C1626   1.284       .  A
C1626      C1678   1.425       .  S
O1627     Zr1628   2.438       .  S
O1627      H1656   0.990       .  S
Zr1628     O1631   2.440       .  S
Zr1628     O1632   2.439       .  S
Zr1628     O1633   2.417       .  S
O1629      C1634   1.282       .  A
O1630      H1647   0.991       .  S
O1630      H1662   0.990       .  S
O1631      H1648   0.990       .  S
O1632      H1652   0.991       .  S
O1632      H1661   0.990       .  S
O1633      C1634   1.281       .  A
C1634      C1665   1.514       .  S
O1635      H1654   0.990       .  S
O1635      H1658   0.990       .  S
O1636      H1650   0.989       .  S
O1636      H1657   0.990       .  S
O1637      C1641   1.284       .  A
O1638      C1641   1.293       .  A
O1639      H1649   0.990       .  S
O1640      H1653   0.990       .  S
C1664      C2007   1.526       .  S
C1664      C1677   1.461       .  S
C1664      C1680   1.447       .  S
C1664      C2032   1.476       .  S
C1665      C1666   1.518       .  S
C1665      C1671   1.513       .  S
C1665      C1669   1.534       .  S
C1666      H1673   1.086       .  S
C1666      C1667   1.361       .  D
C1667      C1668   1.574       .  S
C1668      C1672   1.551       .  S
C1668      C1670   1.572       .  S
C1668      H1674   1.110       .  S
C1669      H1675   1.086       .  S
C1669      C1670   1.377       .  D
C1671      H1676   1.084       .  S
C1671      C1672   1.368       .  D
C1677      C1678   1.201       .  T
C1679      C1680   1.196       .  T
C1681      C1682   1.195       .  T
C1683      C1684   1.200       .  T
C1685      C1686   1.206       .  T
C1689      C1690   1.195       .  T
C1691      C1692   1.206       .  T
C1693      C1694   1.207       .  T
C1695      C1696   1.201       .  T
C1697      C1698   1.194       .  T
C1699      C1700   1.207       .  T
Zr1701     O1702   2.441       .  S
Zr1701     O1703   2.446       .  S
Zr1701     O1704   2.469       .  S
Zr1701     O1707   2.445       .  S
Zr1701     O1709   2.378       .  S
Zr1701     O1710   2.387       .  S
Zr1701     O1711   2.402       .  S
Zr1701     O1712   2.412       .  S
O1702      H1758   0.990       .  S
O1702      H1766   0.990       .  S
O1703      C1723   1.285       .  A
O1704      C1725   1.289       .  A
O1705     Zr1715   2.492       .  S
O1705      C1724   1.295       .  A
O1706     Zr1714   2.399       .  S
O1706      C1725   1.276       .  A
O1707      C1724   1.287       .  A
O1708     Zr1716   2.366       .  S
O1708      C1723   1.269       .  A
O1709     Zr1714   2.383       .  S
O1709     Zr1716   2.379       .  S
O1710     Zr1715   2.399       .  S
O1710     Zr1716   2.378       .  S
O1710      H1745   0.967       .  S
O1711     Zr1714   2.399       .  S
O1711     Zr1731   2.379       .  S
O1711      H1748   0.964       .  S
O1712     Zr1715   2.400       .  S
O1712     Zr1731   2.401       .  S
Zr1713     O1738   2.445   1_565  S
Zr1713     O1732   2.439   1_565  S
Zr1713     O1740   2.418       .  S
Zr1713     O1728   2.447   1_565  S
Zr1713     O1719   2.385       .  S
Zr1713     O1720   2.408       .  S
Zr1713     O1721   2.359       .  S
Zr1713     O1722   2.401       .  S
Zr1714     O1733   2.436       .  S
Zr1714     O1726   2.435       .  S
Zr1714     O1727   2.408   1_565  S
Zr1714     O1720   2.393       .  S
Zr1714     O1721   2.376       .  S
Zr1715     O1717   2.436       .  S
Zr1715     O1739   2.443       .  S
Zr1715     O1741   2.497       .  S
Zr1715     O1719   2.376       .  S
Zr1715     O1722   2.427       .  S
Zr1716     O1742   2.433       .  S
Zr1716     O1743   2.437       .  S
Zr1716     O1718   2.424       .  S
Zr1716     O1719   2.348       .  S
Zr1716     O1720   2.377       .  S
O1717      H1754   0.990       .  S
O1718      H1749   0.990       .  S
O1718      H1763   0.988       .  S
O1720      H1746   0.964       .  S
O1721     Zr1731   2.370       .  S
O1722     Zr1731   2.390       .  S
O1722      H1747   0.966       .  S
C1723      C2038   1.410       .  S
C1724      C1773   1.503       .  S
C1725      C2040   1.432       .  S
O1726      H1762   0.990       .  S
C1729      C2036   1.425       .  S
O1730     Zr1731   2.438       .  S
Zr1731     O1734   2.441       .  S
Zr1731     O1736   2.412   1_565  S
O1733      H1750   0.991       .  S
O1733      H1765   0.990       .  S
O1734      H1751   0.990       .  S
O1735      H1755   0.990       .  S
C1737      C1768   1.513       .  S
O1738      H1757   0.990       .  S
O1738      H1761   0.991       .  S
O1739      H1753   0.989       .  S
O1739      H1760   0.990       .  S
O1740      C1744   1.284       .  A
O1741      C1744   1.293       .  A
O1742      H1752   0.990       .  S
O1743      H1756   0.990       .  S
C1744      C1854   1.497       .  S
C1767      C1770   1.525       .  S
C1767      C2034   1.476       .  S
C1767      C2035   1.462       .  S
C1767      C2037   1.444       .  S
C1768      C1769   1.518       .  S
C1768      C1774   1.514       .  S
C1768      C1772   1.534       .  S
C1769      H1776   1.086       .  S
C1770      C1771   1.573       .  S
C1771      H1777   1.110       .  S
C1772      H1778   1.086       .  S
C1772      C1773   1.376       .  D
C1774      H1779   1.084       .  S
C1774      C1775   1.367       .  D
Zr1780     O1781   2.441       .  S
Zr1780     O1782   2.451       .  S
Zr1780     O1783   2.473       .  S
Zr1780     O1786   2.452       .  S
Zr1780     O1788   2.381       .  S
Zr1780     O1789   2.388       .  S
Zr1780     O1790   2.404       .  S
Zr1780     O1791   2.413       .  S
O1781      H1837   0.990       .  S
O1781      H1845   0.990       .  S
O1783      C1804   1.289       .  A
O1784     Zr1794   2.496       .  S
O1784      C1803   1.296       .  A
O1785     Zr1793   2.395       .  S
O1785      C1804   1.276       .  A
O1786      C1803   1.289       .  A
O1787     Zr1795   2.366       .  S
O1787      C1802   1.268       .  A
O1788     Zr1793   2.386       .  S
O1789     Zr1794   2.402       .  S
O1789      H1824   0.967       .  S
O1790     Zr1793   2.400       .  S
O1790     Zr1810   2.381       .  S
O1790      H1827   0.965       .  S
O1791     Zr1794   2.400       .  S
O1791     Zr1810   2.402       .  S
Zr1792     O1811   2.438       .  S
Zr1792     O1819   2.417       .  S
Zr1792     O1798   2.382       .  S
Zr1792     O1800   2.359       .  S
Zr1792     O1801   2.403       .  S
Zr1793     O1812   2.436       .  S
Zr1793     O1800   2.373       .  S
Zr1794     O1796   2.437       .  S
Zr1794     O1818   2.444       .  S
Zr1794     O1820   2.501       .  S
Zr1794     O1798   2.373       .  S
Zr1794     O1801   2.429       .  S
Zr1795     O1821   2.432       .  S
Zr1795     O1822   2.436       .  S
Zr1795     O1797   2.424       .  S
Zr1795     O1799   2.383       .  S
O1796      H1833   0.990       .  S
O1797      H1828   0.991       .  S
O1797      H1842   0.988       .  S
O1799      H1825   0.964       .  S
O1800     Zr1810   2.369       .  S
O1801     Zr1810   2.390       .  S
O1801      H1826   0.966       .  S
C1802      C2029   1.410       .  S
C1803      C1852   1.507       .  S
C1804      C2031   1.431   1_655  S
O1805      H1841   0.990       .  S
O1806      C1808   1.278       .  A
O1807      C1808   1.283       .  A
C1808      C2028   1.425       .  S
O1809     Zr1810   2.438       .  S
O1809      H1838   0.990       .  S
Zr1810     O1813   2.442       .  S
Zr1810     O1814   2.440       .  S
Zr1810     O1815   2.420       .  S
O1811      C1816   1.282       .  A
O1812      H1829   0.991       .  S
O1812      H1844   0.990       .  S
O1813      H1830   0.990       .  S
O1814      H1834   0.990       .  S
O1814      H1843   0.990       .  S
O1815      C1816   1.281       .  A
O1817      H1836   0.990   1_554  S
O1817      H1840   0.990       .  S
O1818      H1832   0.989       .  S
O1818      H1839   0.990       .  S
O1819      C1823   1.285       .  A
O1820      C1823   1.294       .  A
O1821      H1831   0.990       .  S
O1822      H1835   0.990       .  S
C1846      C1849   1.525       .  S
C1846      C2025   1.479       .  S
C1846      C2027   1.462       .  S
C1846      C2030   1.444       .  S
C1847      C1848   1.520       .  S
C1847      C1853   1.514       .  S
C1847      C1851   1.534       .  S
C1848      H1855   1.085       .  S
C1848      C1849   1.361       .  D
C1849      C1850   1.573       .  S
C1850      C1854   1.552       .  S
C1850      C1852   1.572       .  S
C1850      H1856   1.110       .  S
C1851      H1857   1.086       .  S
C1851      C1852   1.376       .  D
C1853      H1858   1.084       .  S
C1853      C1854   1.368       .  D
Zr1859     O1860   2.441   1_554  S
Zr1859     O1862   2.470       .  S
Zr1859     O1865   2.453   1_554  S
Zr1859     O1869   2.406   1_554  S
Zr1859     O1870   2.411   1_554  S
O1860      H1916   0.990       .  S
O1860      H1924   0.990       .  S
O1863     Zr1873   2.492       .  S
O1864     Zr1872   2.396       .  S
O1864      C1883   1.276       .  A
O1866     Zr1874   2.367       .  S
O1867     Zr1872   2.383       .  S
O1867     Zr1874   2.378       .  S
O1868     Zr1874   2.380       .  S
O1868      H1903   0.967       .  S
O1869     Zr1889   2.380       .  S
O1869      H1906   0.964       .  S
O1870     Zr1873   2.402       .  S
O1870     Zr1889   2.404       .  S
Zr1871     O1896   2.444       .  S
Zr1871     O1898   2.410       .  S
Zr1871     O1886   2.447       .  S
Zr1871     O1877   2.388       .  S
Zr1871     O1878   2.409       .  S
Zr1872     O1884   2.436       .  S
Zr1872     O1885   2.408       .  S
Zr1872     O1878   2.390       .  S
Zr1873     O1875   2.434       .  S
Zr1873     O1899   2.498   1_556  S
Zr1873     O1880   2.428       .  S
Zr1874     O1900   2.433       .  S
Zr1874     O1901   2.436       .  S
Zr1874     O1876   2.426       .  S
Zr1874     O1877   2.349       .  S
Zr1874     O1878   2.381       .  S
O1875      H1912   0.990       .  S
O1876      H1907   0.990       .  S
O1876      H1921   0.988       .  S
O1878      H1904   0.964       .  S
O1879     Zr1889   2.369   1_554  S
O1880     Zr1889   2.390       .  S
O1880      H1905   0.965       .  S
C1881      C2022   1.415   1_545  S
C1882      C1931   1.507       .  S
C1883      C2033   1.432       .  S
O1884      H1920   0.990       .  S
O1885      C1887   1.279       .  A
O1886      C1887   1.283       .  A
C1887      C2023   1.424       .  S
O1888     Zr1889   2.438       .  S
O1888      H1917   0.990       .  S
Zr1889     O1892   2.440       .  S
Zr1889     O1893   2.441       .  S
Zr1889     O1894   2.415       .  S
O1890      C1895   1.284       .  A
O1891      H1923   0.990       .  S
O1892      H1909   0.990       .  S
O1893      H1913   0.990       .  S
O1893      H1922   0.990       .  S
O1894      C1895   1.279       .  A
C1895      C1926   1.519       .  S
O1896      H1915   0.990       .  S
O1896      H1919   0.991       .  S
O1897      H1918   0.990       .  S
O1899      C1902   1.294       .  A
O1900      H1910   0.990       .  S
O1901      H1914   0.990       .  S
C1925      C1928   1.528       .  S
C1925      C2021   1.449       .  S
C1925      C2024   1.462       .  S
C1925      C2039   1.477       .  S
C1926      C1927   1.521       .  S
C1926      C1932   1.515       .  S
C1926      C1930   1.534       .  S
C1927      H1934   1.085       .  S
C1927      C1928   1.363       .  D
C1928      C1929   1.573       .  S
C1929      C1933   1.552       .  S
C1929      C1931   1.572       .  S
C1929      H1935   1.110       .  S
C1930      H1936   1.086       .  S
C1930      C1931   1.376       .  D
C1932      H1937   1.084       .  S
C1932      C1933   1.368       .  D
C1933      C1981   1.499       .  S
Zr1938     O1941   2.475       .  S
Zr1938     O1946   2.379       .  S
Zr1938     O1947   2.389       .  S
Zr1938     O1948   2.406       .  S
Zr1938     O1949   2.415       .  S
O1939      H1995   0.991       .  S
O1940      C1960   1.284       .  A
O1941      C1962   1.290   1_455  A
O1942      C1961   1.295       .  A
O1943     Zr1951   2.398       .  S
O1943      C1962   1.276   1_455  A
O1944      C1961   1.288       .  A
O1945      C1960   1.268       .  A
O1946     Zr1951   2.383       .  S
O1946     Zr1953   2.380       .  S
O1947     Zr1952   2.403       .  S
O1947     Zr1953   2.378       .  S
O1948     Zr1951   2.402       .  S
O1948     Zr1968   2.381       .  S
O1948      H1985   0.965       .  S
O1949     Zr1952   2.404       .  S
O1949     Zr1968   2.404       .  S
Zr1950     O1975   2.443       .  S
Zr1950     O1969   2.445       .  S
Zr1950     O1977   2.418       .  S
Zr1950     O1965   2.445       .  S
Zr1950     O1956   2.387       .  S
Zr1950     O1957   2.410       .  S
Zr1950     O1958   2.358       .  S
Zr1950     O1959   2.401       .  S
Zr1951     O1970   2.436       .  S
Zr1951     O1963   2.435       .  S
Zr1951     O1964   2.407       .  S
Zr1951     O1957   2.393       .  S
Zr1951     O1958   2.375       .  S
Zr1952     O1954   2.436       .  S
Zr1952     O1978   2.504       .  S
Zr1952     O1956   2.373       .  S
Zr1952     O1959   2.428       .  S
Zr1953     O1980   2.437       .  S
Zr1953     O1955   2.426       .  S
Zr1953     O1956   2.347       .  S
Zr1953     O1957   2.383       .  S
O1954      H1991   0.990       .  S
O1955      H1986   0.991   1_556  S
O1955      H2000   0.988       .  S
O1957      H1983   0.964       .  S
O1958     Zr1968   2.369       .  S
O1959     Zr1968   2.391       .  S
O1959      H1984   0.966       .  S
C1960      C2019   1.411       .  S
C1961      C2010   1.505       .  S
C1962      C2026   1.434       .  S
O1963      H1999   0.990       .  S
O1964      C1966   1.278       .  A
O1965      C1966   1.283       .  A
C1966      C2018   1.423       .  S
O1967     Zr1968   2.440       .  S
O1967      H1996   0.990       .  S
Zr1968     O1971   2.442       .  S
Zr1968     O1972   2.439       .  S
Zr1968     O1973   2.417       .  S
O1969      C1974   1.283       .  A
O1970      H1987   0.991       .  S
O1970      H2002   0.990       .  S
O1971      H1988   0.991       .  S
O1972      H1992   0.991       .  S
O1972      H2001   0.990       .  S
O1973      C1974   1.280       .  A
C1974      C2005   1.517       .  S
O1975      H1994   0.990       .  S
O1975      H1998   0.990       .  S
O1976      H1990   0.989       .  S
O1976      H1997   0.990       .  S
O1977      C1981   1.284       .  A
O1978      C1981   1.295       .  A
O1979      H1989   0.990       .  S
O1980      H1993   0.990       .  S
C2004      C2017   1.460   1_554  S
C2004      C2020   1.445   1_554  S
C2005      C2006   1.520       .  S
C2005      C2011   1.514       .  S
C2005      C2009   1.534       .  S
C2006      H2013   1.085       .  S
C2006      C2007   1.363       .  D
C2007      C2008   1.572       .  S
C2008      C2012   1.550       .  S
C2008      C2010   1.570       .  S
C2008      H2014   1.110       .  S
C2009      H2015   1.086       .  S
C2009      C2010   1.377       .  D
C2011      H2016   1.084       .  S
C2011      C2012   1.368       .  D
C2017      C2018   1.200       .  T
C2019      C2020   1.195       .  T
C2021      C2022   1.197       .  T
C2023      C2024   1.201       .  T
C2025      C2026   1.208       .  T
C2029      C2030   1.193       .  T
C2031      C2032   1.206       .  T
C2033      C2034   1.207       .  T
C2035      C2036   1.201       .  T
C2037      C2038   1.194       .  T
C2039      C2040   1.207       .  T
