geometry optimzed in LAMMPS
_audit_creation_date              2020-11-30 
_audit_creation_method            'lammps2cif' 
_symmetry_space_group_name_H-M    'P1' 
_symmetry_Int_Tables_number       1 
_symmetry_cell_setting            triclinic 
loop_ 
_symmetry_equiv_pos_as_xyz 
  x,y,z 
_cell_length_a                    36.60587361 
_cell_length_b                    36.53504735461979 
_cell_length_c                    35.53987079212713 
_cell_angle_alpha                 90.14191279667247 
_cell_angle_beta                  90.01181875657116 
_cell_angle_gamma                 89.90988892850156 
loop_ 
_atom_site_label 
_atom_site_type_symbol 
_atom_site_fract_x 
_atom_site_fract_y 
_atom_site_fract_z 
_atom_site_charge 
N1          N  0.05729922  0.99901043  0.99534841    -0.36000
N2          N  0.50065942  0.44316348  0.99966124    -0.56500
N3          N  0.44512798  0.50007382  0.99801284    -0.36000
N4          N  0.50177466  0.05596010  0.99874172    -0.56500
C5          C  0.07779672  0.46912910  0.00311376     0.27600
C6          C  0.07845531  0.02873562  0.00169592     0.27600
C7          C  0.42410900  0.47047829  0.00513693     0.27600
C8          C  0.42478703  0.03009142  0.00577970     0.27600
C9          C  0.02999130  0.42121763  0.99464249     0.36200
C10         C  0.47091077  0.42182907  0.99483111     0.36200
C11         C  0.03130944  0.07703480  0.99180572     0.36200
C12         C  0.47220817  0.07769732  0.99415897     0.36200
C13         C  0.11253548  0.47998907  0.01398986    -0.21300
C14         C  0.11296058  0.01759162  0.01305573    -0.21300
C15         C  0.38982487  0.48180930  0.01703864    -0.21300
C16         C  0.39027002  0.01942703  0.01751332    -0.21300
C17         C  0.01884254  0.38571767  0.98701543    -0.22300
C18         C  0.48138989  0.38611054  0.98710606    -0.22300
C19         C  0.02046544  0.11236207  0.98300124    -0.22300
C20         C  0.48300532  0.11280343  0.98458366    -0.22300
C21         C  0.06670113  0.43227430  0.99890721    -0.17700
C22         C  0.06796707  0.06560501  0.99611375    -0.17700
C23         C  0.43568680  0.06683180  0.00038599    -0.17700
C24         C  0.43443452  0.43354524  0.99962813    -0.17700
H25         H  0.13529912  0.46261615  0.02171400     0.15200
H26         H  0.13609698  0.03476002  0.01994414     0.15200
H27         H  0.36679265  0.46474754  0.02446197     0.15200
H28         H  0.36760166  0.03693524  0.02528790     0.15200
H29         H  0.03589573  0.36194506  0.98215539     0.13500
H30         H  0.46389374  0.36268660  0.98238963     0.13500
H31         H  0.03776414  0.13552461  0.97659997     0.13500
H32         H  0.46571230  0.13633414  0.97949759     0.13500
H33         H  0.03180072  0.99901918  0.98259878     0.26800
H34         H  0.47029323  0.99981748  0.98462145     0.26800
N35         N  0.44187688  0.49950326  0.25118320    -0.36000
N36         N  0.99768839  0.05635947  0.24732922    -0.56500
N37         N  0.05411020  0.50024658  0.24899347    -0.36000
N38         N  0.99833592  0.44335468  0.24775888    -0.56500
C39         C  0.42063420  0.02918758  0.24492008     0.27600
C40         C  0.42103096  0.46952958  0.24504251     0.27600
C41         C  0.07479879  0.03013282  0.24214221     0.27600
C42         C  0.07509826  0.47049485  0.24209210     0.27600
C43         C  0.46801736  0.07789962  0.25222322     0.36200
C44         C  0.02715860  0.07825895  0.25145064     0.36200
C45         C  0.46902745  0.42158414  0.25330723     0.36200
C46         C  0.02816195  0.42200947  0.25243010     0.36200
C47         C  0.38567025  0.01793883  0.23530604    -0.21300
C48         C  0.38592409  0.48031681  0.23537157    -0.21300
C49         C  0.10951827  0.01924288  0.23117184    -0.21300
C50         C  0.10969922  0.48161073  0.23110318    -0.21300
C51         C  0.47868843  0.11374978  0.25878835    -0.22300
C52         C  0.01614578  0.11397200  0.25831174    -0.22300
C53         C  0.48027270  0.38613743  0.26101698    -0.22300
C54         C  0.01774737  0.38640780  0.26047615    -0.22300
C55         C  0.43135468  0.06617353  0.24909858    -0.17700
C56         C  0.43222222  0.43270980  0.24955368    -0.17700
C57         C  0.06464874  0.43363239  0.24751155    -0.17700
C58         C  0.06388514  0.06694855  0.24734752    -0.17700
H59         H  0.36232640  0.03506070  0.22894711     0.15200
H60         H  0.36280550  0.46289582  0.22912138     0.15200
H61         H  0.13244283  0.03660825  0.22415375     0.15200
H62         H  0.13281401  0.46439706  0.22407236     0.15200
H63         H  0.46130801  0.13735231  0.26328003     0.13500
H64         H  0.03329137  0.13777792  0.26229788     0.13500
H65         H  0.46325563  0.36248554  0.26623121     0.13500
H66         H  0.03530329  0.36299212  0.26516805     0.13500
H67         H  0.46778995  0.49972784  0.26293037     0.26800
H68         H  0.02873210  0.50015902  0.26192040     0.26800
Zn69       Zn  0.29410584  0.25008794  0.03392165     1.49700
Zn70       Zn  0.25217263  0.20647341  0.46873757     1.49400
Zn71       Zn  0.20673280  0.24921153  0.03187795     1.49100
Zn72       Zn  0.25167134  0.29370300  0.46944150     1.49500
O73         O  0.25114284  0.24985482  0.00104517    -1.83500
O74         O  0.32521965  0.20521354  0.02546344    -0.74100
O75         O  0.20783840  0.17490048  0.47704329    -0.73900
O76         O  0.21876557  0.24900021  0.08728875    -0.73500
O77         O  0.29689296  0.17578970  0.47918126    -0.74100
O78         O  0.27948439  0.25041065  0.08843654    -0.73700
O79         O  0.17621223  0.20441391  0.02081716    -0.74300
O80         O  0.20750969  0.32487106  0.47923544    -0.73700
O81         O  0.25193843  0.22027718  0.41390466    -0.74500
O82         O  0.17580333  0.29381787  0.02178340    -0.73900
O83         O  0.25079389  0.28109491  0.41428100    -0.74300
O84         O  0.29637283  0.32422858  0.47923865    -0.74200
O85         O  0.32540294  0.29462269  0.02470536    -0.74000
C86         C  0.32311531  0.17834175  0.00268035     0.77800
C87         C  0.18004657  0.17744519  0.99834164     0.78300
C88         C  0.24882853  0.24968866  0.10529372     0.77200
C89         C  0.17952731  0.32136529  0.00022368     0.77600
C90         C  0.25090743  0.25074860  0.39665219     0.78700
C91         C  0.32295729  0.32150518  0.00208760     0.77800
Zn92       Zn  0.20445860  0.24985181  0.21876802     1.49700
Zn93       Zn  0.24769184  0.20649033  0.28320338     1.49400
Zn94       Zn  0.29168135  0.24960091  0.21918465     1.49100
Zn95       Zn  0.24821231  0.29388020  0.28273022     1.49500
O96         O  0.24797455  0.24995379  0.25097942    -1.83500
O97         O  0.17337238  0.20532196  0.22865057    -0.74100
O98         O  0.29187886  0.17488048  0.27334818    -0.73900
O99         O  0.27850516  0.24981818  0.16428282    -0.73500
O100        O  0.20245609  0.17593745  0.27440294    -0.74100
O101        O  0.21779446  0.24941075  0.16372917    -0.73700
O102        O  0.32209024  0.20457661  0.22869888    -0.74300
O103        O  0.29292662  0.32449202  0.27296347    -0.73700
O104        O  0.24920919  0.22030302  0.33798742    -0.74500
O105        O  0.32318618  0.29392208  0.22879317    -0.73900
O106        O  0.24891363  0.28114161  0.33791847    -0.74300
O107        O  0.20372723  0.32498860  0.27271259    -0.74200
O108        O  0.17382502  0.29494701  0.22786580    -0.74000
C109        C  0.17574336  0.17866653  0.25158202     0.77800
C110        C  0.31897854  0.17757863  0.25106815     0.78300
C111        C  0.24830073  0.24963130  0.14656639     0.77200
C112        C  0.32021810  0.32116907  0.25101363     0.77600
C113        C  0.24962959  0.25077404  0.35538735     0.78700
C114        C  0.17681510  0.32213238  0.25016764     0.80200
C115        C  0.09378059  0.40542581  0.24776037    -0.04800
C116        C  0.11348217  0.39908282  0.28088521    -0.32300
C117        C  0.14062590  0.37211117  0.28207932     0.37000
C118        C  0.14841595  0.35102815  0.24969675    -0.05200
C119        C  0.12858055  0.35763694  0.21648392    -0.32200
C120        C  0.10165826  0.38484890  0.21530974     0.36900
H121        H  0.10749385  0.41489680  0.30597813     0.17300
O122        O  0.15890325  0.36621663  0.31521654    -0.59700
H123        H  0.13425757  0.34197279  0.19122140     0.17300
O124        O  0.08298912  0.39102574  0.18246215    -0.59800
H125        H  0.09644252  0.41105980  0.16979232     0.44300
H126        H  0.14430614  0.34756135  0.32873542     0.44200
C127        C  0.40359396  0.40400750  0.24974657    -0.04800
C128        C  0.38340226  0.39783505  0.28257718    -0.32300
C129        C  0.35612183  0.37103535  0.28340875     0.37000
C130        C  0.34897747  0.34965568  0.25107781    -0.05200
C131        C  0.36951964  0.35586003  0.21827411    -0.32200
C132        C  0.39653253  0.38292408  0.21743640     0.36900
H133        H  0.38890910  0.41384318  0.30764769     0.17300
O134        O  0.33760863  0.36504019  0.31637165    -0.59700
H135        H  0.36425615  0.34007207  0.19300624     0.17300
O136        O  0.41526125  0.38929168  0.18468631    -0.59800
H137        H  0.43655099  0.37249836  0.18547766     0.44300
H138        H  0.31835023  0.38414930  0.31721483     0.44200
C139        C  0.40230343  0.09450442  0.24935490    -0.04800
C140        C  0.38165566  0.10021131  0.28202642    -0.32300
C141        C  0.35452043  0.12722606  0.28310044     0.37000
C142        C  0.34749737  0.14878072  0.25094720    -0.05200
C143        C  0.36840524  0.14291287  0.21827957    -0.32200
C144        C  0.39548666  0.11588768  0.21730310     0.36900
H145        H  0.38694504  0.08392285  0.30688559     0.17300
O146        O  0.33557108  0.13274538  0.31592522    -0.59700
H147        H  0.36351901  0.15908207  0.19325867     0.17300
O148        O  0.41543096  0.11075307  0.18504928    -0.59800
H149        H  0.40290974  0.09066152  0.17139553     0.44300
H150        H  0.35006328  0.15100739  0.33021913     0.44200
C151        C  0.14707616  0.15004480  0.25107597    -0.04800
C152        C  0.12766675  0.14328775  0.21760389    -0.32300
C153        C  0.10072201  0.11619404  0.21603033     0.37000
C154        C  0.09272045  0.09543541  0.24818736    -0.05200
C155        C  0.11178656  0.10210278  0.28168967    -0.32200
C156        C  0.13889159  0.12909398  0.28332678     0.36900
H157        H  0.13367979  0.15877136  0.19239922     0.17300
O158        O  0.08280430  0.10965551  0.18279904    -0.59700
H159        H  0.10542081  0.08644894  0.30669790     0.17300
O160        O  0.15606071  0.13580417  0.31695175    -0.59800
H161        H  0.17503049  0.11651774  0.31914972     0.44300
H162        H  0.06170114  0.12670697  0.18286268     0.44200
C163        C  0.15071047  0.34984507  0.99954007    -0.04800
C164        C  0.12676314  0.35338462  0.03028476    -0.32300
C165        C  0.09941386  0.38014991  0.03043568     0.37000
C166        C  0.09538872  0.40358864  0.99940098    -0.05200
C167        C  0.11909424  0.40018897  0.46861567    -0.32200
C168        C  0.14654540  0.37354915  0.46841767     0.36900
H169        H  0.12948628  0.33564455  0.05450989     0.17300
O170        O  0.07663787  0.38315142  0.06093109    -0.59700
H171        H  0.11608054  0.41815620  0.44459309     0.17300
O172        O  0.16875766  0.37068430  0.43746487    -0.59800
H173        H  0.15618976  0.35324991  0.42040468     0.44300
H174        H  0.08794098  0.40205930  0.07724950     0.44200
C175        C  0.35160279  0.35016975  0.00204158    -0.04800
C176        C  0.35573580  0.37264566  0.47026209    -0.32300
C177        C  0.38241007  0.39999189  0.46932315     0.37000
C178        C  0.40546493  0.40525575  0.00039719    -0.05200
C179        C  0.40145960  0.38315037  0.03226053    -0.32200
C180        C  0.37492126  0.35563708  0.03324122     0.36900
H181        H  0.33843283  0.36885075  0.44583049     0.17300
O182        O  0.38640517  0.42084921  0.43755480    -0.59700
H183        H  0.41908356  0.38724353  0.05640600     0.17300
O184        O  0.37127984  0.33513704  0.06529618    -0.59800
H185        H  0.39039865  0.31595189  0.06343519     0.44300
H186        H  0.36936388  0.44172901  0.44091061     0.44200
C187        C  0.35182751  0.14960245  0.00300905    -0.04800
C188        C  0.35601673  0.12672180  0.47137583    -0.32300
C189        C  0.38333797  0.09997405  0.47028373     0.37000
C190        C  0.40694125  0.09550773  0.00112652    -0.05200
C191        C  0.40268437  0.11777720  0.03298585    -0.32200
C192        C  0.37523253  0.14452341  0.03424904     0.36900
H193        H  0.33837977  0.12985713  0.44711252     0.17300
O194        O  0.38672409  0.07815078  0.43902093    -0.59700
H195        H  0.42048839  0.11410818  0.05705153     0.17300
O196        O  0.37135937  0.16517722  0.06628868    -0.59800
H197        H  0.35380695  0.15148974  0.08216980     0.44300
H198        H  0.40551504  0.09020682  0.42325299     0.44200
C199        C  0.15162814  0.14849527  0.99726842    -0.04800
C200        C  0.12793889  0.14432825  0.02811494    -0.32300
C201        C  0.10084454  0.11735767  0.02801998     0.37000
C202        C  0.09688306  0.09408904  0.99675359    -0.05200
C203        C  0.12041147  0.09796673  0.46595790    -0.32200
C204        C  0.14770928  0.12482132  0.46603334     0.36900
H205        H  0.13060699  0.16180141  0.05263092     0.17300
O206        O  0.07886568  0.11327475  0.05897629    -0.59700
H207        H  0.11745987  0.08016800  0.44171453     0.17300
O208        O  0.16949280  0.12844051  0.43486484    -0.59800
H209        H  0.18893721  0.10973542  0.43784317     0.44300
H210        H  0.05899739  0.13148149  0.05576697     0.44200
N211        N  0.05730525  0.99904523  0.49533557    -0.36000
N212        N  0.50069352  0.44317102  0.49964714    -0.56500
N213        N  0.44513408  0.50005180  0.49800661    -0.36000
N214        N  0.50175173  0.05596527  0.49873245    -0.56500
C215        C  0.07782239  0.46917183  0.50307731     0.27600
C216        C  0.07844961  0.02878024  0.50167600     0.27600
C217        C  0.42414087  0.47044689  0.50516901     0.27600
C218        C  0.42478849  0.03005982  0.50579861     0.27600
C219        C  0.03003419  0.42124411  0.49459564     0.36200
C220        C  0.47095376  0.42182771  0.49480008     0.36200
C221        C  0.03127504  0.07704890  0.49177407     0.36200
C222        C  0.47217347  0.07767864  0.49411203     0.36200
C223        C  0.11256360  0.48004690  0.51392999    -0.21300
C224        C  0.11296875  0.01765034  0.51300675    -0.21300
C225        C  0.38986939  0.48176161  0.51712520    -0.21300
C226        C  0.39029562  0.01938049  0.51759186    -0.21300
C227        C  0.01889942  0.38574775  0.48692760    -0.22300
C228        C  0.48144642  0.38612327  0.48702750    -0.22300
C229        C  0.02041163  0.11235675  0.48291317    -0.22300
C230        C  0.48295079  0.11277717  0.48448509    -0.22300
C231        C  0.06674023  0.43231263  0.49886706    -0.17700
C232        C  0.06793842  0.06564555  0.49610330    -0.17700
C233        C  0.43566060  0.06680201  0.50036672    -0.17700
C234        C  0.43447586  0.43352074  0.49963445    -0.17700
H235        H  0.13534305  0.46268403  0.52162878     0.15200
H236        H  0.13610282  0.03482801  0.51987888     0.15200
H237        H  0.36685755  0.46468817  0.52458686     0.15200
H238        H  0.36763046  0.03687963  0.52539811     0.15200
H239        H  0.03596248  0.36198899  0.48203281     0.13500
H240        H  0.46395900  0.36269723  0.48228725     0.13500
H241        H  0.03769787  0.13551960  0.47647808     0.13500
H242        H  0.46564398  0.13628963  0.47935996     0.13500
H243        H  0.03179724  0.99904370  0.48260711     0.26800
H244        H  0.47027718  0.99980687  0.48456834     0.26800
N245        N  0.44190309  0.49949502  0.75118151    -0.36000
N246        N  0.99771325  0.05634493  0.74728638    -0.56500
N247        N  0.05412466  0.50022785  0.74896942    -0.36000
N248        N  0.99834801  0.44334043  0.74777554    -0.56500
C249        C  0.42066087  0.02917659  0.74488953     0.27600
C250        C  0.42105251  0.46952020  0.74504990     0.27600
C251        C  0.07482248  0.03011073  0.74211959     0.27600
C252        C  0.07511097  0.47047264  0.74206638     0.27600
C253        C  0.46804324  0.07788660  0.75218380     0.36200
C254        C  0.02718532  0.07824055  0.75141871     0.36200
C255        C  0.46904038  0.42157829  0.75335940     0.36200
C256        C  0.02817364  0.42199597  0.75244660     0.36200
C257        C  0.38570046  0.01792572  0.73526460    -0.21300
C258        C  0.38595092  0.48030405  0.73535419    -0.21300
C259        C  0.10954090  0.01921573  0.73115050    -0.21300
C260        C  0.10971460  0.48158315  0.73107814    -0.21300
C261        C  0.47871679  0.11373394  0.75875821    -0.22300
C262        C  0.01617412  0.11395267  0.75828736    -0.22300
C263        C  0.48028489  0.38613708  0.76109597    -0.22300
C264        C  0.01775965  0.38640221  0.76053118    -0.22300
C265        C  0.43137953  0.06616262  0.74906327    -0.17700
C266        C  0.43223735  0.43270356  0.74959532    -0.17700
C267        C  0.06465736  0.43361231  0.74749526    -0.17700
C268        C  0.06391246  0.06692758  0.74732450    -0.17700
H269        H  0.36236056  0.03504630  0.72888560     0.15200
H270        H  0.36283292  0.46288124  0.72910591     0.15200
H271        H  0.13246912  0.03657798  0.72413574     0.15200
H272        H  0.13282770  0.46436573  0.72404984     0.15200
H273        H  0.46133797  0.13733621  0.76325743     0.13500
H274        H  0.03332107  0.13775561  0.76228611     0.13500
H275        H  0.46326698  0.36249181  0.76633861     0.13500
H276        H  0.03531580  0.36298851  0.76523264     0.13500
H277        H  0.46781684  0.49972439  0.76292744     0.26800
H278        H  0.02873813  0.50014525  0.76187778     0.26800
Zn279      Zn  0.29411324  0.25006846  0.53393286     1.49700
Zn280      Zn  0.25219079  0.20646278  0.96872688     1.49400
Zn281      Zn  0.20673814  0.24924834  0.53188829     1.49100
Zn282      Zn  0.25163434  0.29369634  0.96942983     1.49500
O283        O  0.25115005  0.24986383  0.50105651    -1.83500
O284        O  0.32519932  0.20518016  0.52546422    -0.74100
O285        O  0.20787345  0.17485781  0.97702334    -0.73900
O286        O  0.21877208  0.24902612  0.58729944    -0.73500
O287        O  0.29692695  0.17580821  0.97918012    -0.74100
O288        O  0.27949244  0.25038834  0.58844483    -0.73700
O289        O  0.17618056  0.20447571  0.52082451    -0.74300
O290        O  0.20744753  0.32482957  0.97921919    -0.73700
O291        O  0.25195925  0.22026822  0.91389521    -0.74500
O292        O  0.17584070  0.29387206  0.52178902    -0.73900
O293        O  0.25077265  0.28108560  0.91427302    -0.74300
O294        O  0.29631255  0.32426109  0.97922310    -0.74200
O295        O  0.32544253  0.29458395  0.52472991    -0.74000
C296        C  0.32308378  0.17831035  0.50268015     0.77800
C297        C  0.18000603  0.17750362  0.49835171     0.78300
C298        C  0.24883691  0.24968761  0.60530274     0.77200
C299        C  0.17958345  0.32141987  0.50023370     0.77600
C300        C  0.25091010  0.25073980  0.89664408     0.78700
C301        C  0.32301445  0.32146279  0.50210584     0.77800
Zn302      Zn  0.20447370  0.24984855  0.71877007     1.49700
Zn303      Zn  0.24770798  0.20648304  0.78319926     1.49400
Zn304      Zn  0.29169991  0.24960153  0.71919207     1.49100
Zn305      Zn  0.24821968  0.29387695  0.78272766     1.49500
O306        O  0.24799066  0.24994998  0.75098015    -1.83500
O307        O  0.17337656  0.20532906  0.72865685    -0.74100
O308        O  0.29189822  0.17487013  0.77335370    -0.73900
O309        O  0.27851789  0.24981099  0.66428983    -0.73500
O310        O  0.20246965  0.17593416  0.77439493    -0.74100
O311        O  0.21780671  0.24940450  0.66373687    -0.73700
O312        O  0.32211749  0.20458073  0.72872058    -0.74300
O313        O  0.29292493  0.32449760  0.77296415    -0.73700
O314        O  0.24921970  0.22029613  0.83798019    -0.74500
O315        O  0.32319260  0.29393513  0.72879467    -0.73900
O316        O  0.24891982  0.28113530  0.83791328    -0.74300
O317        O  0.20373613  0.32498273  0.77270465    -0.74200
O318        O  0.17384618  0.29494387  0.72784866    -0.74000
C319        C  0.17575083  0.17866923  0.75158225     0.77800
C320        C  0.31900388  0.17757610  0.75108230     0.78300
C321        C  0.24831234  0.24962548  0.64657437     0.77200
C322        C  0.32021722  0.32118156  0.75101515     0.77600
C323        C  0.24963681  0.25076676  0.85538042     0.78700
C324        C  0.17683090  0.32212782  0.75015120     0.80200
C325        C  0.09378492  0.40540344  0.74774167    -0.04800
C326        C  0.11348576  0.39906222  0.78086641    -0.32300
C327        C  0.14063000  0.37209303  0.78206109     0.37000
C328        C  0.14843004  0.35101947  0.74967564    -0.05200
C329        C  0.12859333  0.35762380  0.71646216    -0.32200
C330        C  0.10165953  0.38482387  0.71529125     0.36900
H331        H  0.10749335  0.41487301  0.80596036     0.17300
O332        O  0.15889336  0.36618606  0.81520402    -0.59700
H333        H  0.13427248  0.34195975  0.69119999     0.17300
O334        O  0.08297041  0.39097804  0.68245069    -0.59800
H335        H  0.09630700  0.41112908  0.66984617     0.44300
H336        H  0.14427776  0.34754260  0.82871915     0.44200
C337        C  0.40360742  0.40400407  0.74978343    -0.04800
C338        C  0.38340572  0.39783250  0.78260755    -0.32300
C339        C  0.35611493  0.37104290  0.78342487     0.37000
C340        C  0.34897279  0.34967151  0.75108716    -0.05200
C341        C  0.36952096  0.35587995  0.71828870    -0.32200
C342        C  0.39654324  0.38293434  0.71746510     0.36900
H343        H  0.38891119  0.41383428  0.80768264     0.17300
O344        O  0.33758905  0.36504931  0.81638053    -0.59700
H345        H  0.36425726  0.34010053  0.69301524     0.17300
O346        O  0.41527943  0.38930671  0.68472055    -0.59800
H347        H  0.43656548  0.37250868  0.68551168     0.44300
H348        H  0.31832337  0.38415161  0.81720899     0.44200
C349        C  0.40232547  0.09449279  0.74933291    -0.04800
C350        C  0.38166510  0.10017377  0.78200147    -0.32300
C351        C  0.35452934  0.12718910  0.78308903     0.37000
C352        C  0.34752313  0.14877591  0.75095392    -0.05200
C353        C  0.36844136  0.14293057  0.71828899    -0.32200
C354        C  0.39551698  0.11589995  0.71729661     0.36900
H355        H  0.38694333  0.08386288  0.80684763     0.17300
O356        O  0.33555955  0.13267296  0.81590751    -0.59700
H357        H  0.36356466  0.15911900  0.69327945     0.17300
O358        O  0.41546005  0.11077928  0.68503989    -0.59800
H359        H  0.40291476  0.09072066  0.67135823     0.44300
H360        H  0.35005778  0.15089765  0.83024516     0.44200
C361        C  0.14708423  0.15004574  0.75107392    -0.04800
C362        C  0.12765084  0.14331500  0.71761095    -0.32300
C363        C  0.10071828  0.11620965  0.71602918     0.37000
C364        C  0.09274926  0.09541449  0.74816982    -0.05200
C365        C  0.11183828  0.10205623  0.78166412    -0.32200
C366        C  0.13893259  0.12905810  0.78330865     0.36900
H367        H  0.13363800  0.15882593  0.69241757     0.17300
O368        O  0.08278175  0.10969457  0.68280383    -0.59700
H369        H  0.10549758  0.08637504  0.80666097     0.17300
O370        O  0.15612659  0.13573760  0.81692633    -0.59800
H371        H  0.17515777  0.11650348  0.81904551     0.44300
H372        H  0.06166300  0.12672640  0.68290540     0.44200
C373        C  0.15077521  0.34990875  0.49954236    -0.04800
C374        C  0.12678160  0.35341176  0.53025294    -0.32300
C375        C  0.09942487  0.38016814  0.53038911     0.37000
C376        C  0.09543616  0.40363484  0.49937144    -0.05200
C377        C  0.11899869  0.40010407  0.96861107    -0.32200
C378        C  0.14643859  0.37345213  0.96839564     0.36900
H379        H  0.12947100  0.33564696  0.55446280     0.17300
O380        O  0.07660526  0.38313238  0.56085382    -0.59700
H381        H  0.11595429  0.41804786  0.94457401     0.17300
O382        O  0.16859914  0.37054031  0.93740784    -0.59800
H383        H  0.15589416  0.35325198  0.92029855     0.44300
H384        H  0.08785215  0.40206475  0.57718361     0.44200
C385        C  0.35167258  0.35011548  0.50205399    -0.04800
C386        C  0.35568824  0.37268270  0.97023966    -0.32300
C387        C  0.38237103  0.40002178  0.96930230     0.37000
C388        C  0.40551987  0.40521718  0.50040650    -0.05200
C389        C  0.40154683  0.38308590  0.53225577    -0.32200
C390        C  0.37501656  0.35556382  0.53323747     0.36900
H391        H  0.33840050  0.36887554  0.94579858     0.17300
O392        O  0.38639138  0.42086192  0.93752526    -0.59700
H393        H  0.41918814  0.38716718  0.55638991     0.17300
O394        O  0.37140983  0.33503642  0.56527794    -0.59800
H395        H  0.39050505  0.31583281  0.56336065     0.44300
H396        H  0.36936060  0.44175300  0.94086310     0.44200
C397        C  0.35178757  0.14956073  0.50300721    -0.04800
C398        C  0.35610877  0.12681271  0.97134837    -0.32300
C399        C  0.38343151  0.10006742  0.97026049     0.37000
C400        C  0.40690246  0.09546555  0.50111403    -0.05200
C401        C  0.40269499  0.11778145  0.53294546    -0.32200
C402        C  0.37524214  0.14452528  0.53421593     0.36900
H403        H  0.33851125  0.12998538  0.94705984     0.17300
O404        O  0.38687071  0.07829370  0.93896743    -0.59700
H405        H  0.42054045  0.11415164  0.55698496     0.17300
O406        O  0.37142109  0.16522331  0.56623201    -0.59800
H407        H  0.35387176  0.15157263  0.58215038     0.44300
H408        H  0.40568658  0.09037642  0.92325266     0.44200
C409        C  0.15157390  0.14856570  0.49726831    -0.04800
C410        C  0.12781360  0.14446280  0.52806678    -0.32300
C411        C  0.10072274  0.11748756  0.52796810     0.37000
C412        C  0.09683628  0.09414945  0.49674506    -0.05200
C413        C  0.12039462  0.09796200  0.96592168    -0.32200
C414        C  0.14769741  0.12481307  0.96599312     0.36900
H415        H  0.13042565  0.16198600  0.55255150     0.17300
O416        O  0.07867945  0.11346335  0.55888439    -0.59700
H417        H  0.11738541  0.08021491  0.94164603     0.17300
O418        O  0.16941280  0.12849860  0.93478256    -0.59800
H419        H  0.18886504  0.10978876  0.93767518     0.44300
H420        H  0.05883563  0.13168615  0.55561231     0.44200
N421        N  0.05729922  0.49901047  0.99534841    -0.36000
N422        N  0.50065942  0.94316349  0.99966118    -0.56500
N423        N  0.44512797  0.00007382  0.99801284    -0.36000
N424        N  0.50177467  0.55596010  0.99874172    -0.56500
C425        C  0.07779673  0.96912907  0.00311376     0.27600
C426        C  0.07845532  0.52873564  0.00169592     0.27600
C427        C  0.42410899  0.97047829  0.00513694     0.27600
C428        C  0.42478704  0.53009144  0.00577969     0.27600
C429        C  0.02999129  0.92121765  0.99464249     0.36200
C430        C  0.47091075  0.92182907  0.99483109     0.36200
C431        C  0.03130945  0.57703482  0.99180571     0.36200
C432        C  0.47220819  0.57769731  0.99415896     0.36200
C433        C  0.11253548  0.97998904  0.01398986    -0.21300
C434        C  0.11296059  0.51759166  0.01305573    -0.21300
C435        C  0.38982486  0.98180929  0.01703865    -0.21300
C436        C  0.39027002  0.51942704  0.01751331    -0.21300
C437        C  0.01884252  0.88571771  0.98701544    -0.22300
C438        C  0.48138988  0.88611055  0.98710606    -0.22300
C439        C  0.02046547  0.61236210  0.98300123    -0.22300
C440        C  0.48300537  0.61280339  0.98458366    -0.22300
C441        C  0.06670113  0.93227428  0.99890721    -0.17700
C442        C  0.06796706  0.56560503  0.99611376    -0.17700
C443        C  0.43568681  0.56683181  0.00038595    -0.17700
C444        C  0.43443453  0.93354524  0.99962815    -0.17700
H445        H  0.13529913  0.96261613  0.02171400     0.15200
H446        H  0.13609698  0.53476008  0.01994414     0.15200
H447        H  0.36679264  0.96474753  0.02446198     0.15200
H448        H  0.36760168  0.53693525  0.02528789     0.15200
H449        H  0.03589568  0.86194508  0.98215541     0.13500
H450        H  0.46389371  0.86268661  0.98238969     0.13500
H451        H  0.03776417  0.63552462  0.97659999     0.13500
H452        H  0.46571231  0.63633412  0.97949760     0.13500
H453        H  0.03180071  0.49901924  0.98259881     0.26800
H454        H  0.47029325  0.49981748  0.98462145     0.26800
N455        N  0.44187687  0.99950326  0.25118320    -0.36000
N456        N  0.99768839  0.55635945  0.24732922    -0.56500
N457        N  0.05411020  0.00024656  0.24899347    -0.36000
N458        N  0.99833590  0.94335465  0.24775888    -0.56500
C459        C  0.42063420  0.52918759  0.24492008     0.27600
C460        C  0.42103096  0.96952957  0.24504251     0.27600
C461        C  0.07479877  0.53013284  0.24214222     0.27600
C462        C  0.07509824  0.97049482  0.24209210     0.27600
C463        C  0.46801736  0.57789962  0.25222322     0.36200
C464        C  0.02715859  0.57825894  0.25145064     0.36200
C465        C  0.46902743  0.92158411  0.25330724     0.36200
C466        C  0.02816192  0.92200943  0.25243010     0.36200
C467        C  0.38567025  0.51793883  0.23530604    -0.21300
C468        C  0.38592409  0.98031682  0.23537157    -0.21300
C469        C  0.10951822  0.51924290  0.23117185    -0.21300
C470        C  0.10969922  0.98161067  0.23110318    -0.21300
C471        C  0.47868842  0.61374980  0.25878835    -0.22300
C472        C  0.01614576  0.61397198  0.25831174    -0.22300
C473        C  0.48027266  0.88613740  0.26101698    -0.22300
C474        C  0.01774731  0.88640777  0.26047615    -0.22300
C475        C  0.43135468  0.56617353  0.24909858    -0.17700
C476        C  0.43222220  0.93270979  0.24955368    -0.17700
C477        C  0.06464872  0.93363234  0.24751156    -0.17700
C478        C  0.06388513  0.56694856  0.24734752    -0.17700
H479        H  0.36232640  0.53506070  0.22894711     0.15200
H480        H  0.36280548  0.96289584  0.22912137     0.15200
H481        H  0.13244280  0.53660830  0.22415376     0.15200
H482        H  0.13281397  0.96439695  0.22407238     0.15200
H483        H  0.46130800  0.63735229  0.26328002     0.13500
H484        H  0.03329138  0.63777789  0.26229787     0.13500
H485        H  0.46325557  0.86248552  0.26623121     0.13500
H486        H  0.03530317  0.86299205  0.26516806     0.13500
H487        H  0.46778994  0.99972785  0.26293037     0.26800
H488        H  0.02873209  0.00015901  0.26192039     0.26800
Zn489      Zn  0.29410585  0.75008795  0.03392165     1.49700
Zn490      Zn  0.25217262  0.70647338  0.46873769     1.49400
Zn491      Zn  0.20673281  0.74921165  0.03187795     1.49100
Zn492      Zn  0.25167134  0.79370298  0.46944150     1.49500
O493        O  0.25114285  0.74985482  0.00104517    -1.83500
O494        O  0.32521965  0.70521353  0.02546344    -0.74100
O495        O  0.20783840  0.67490044  0.47704335    -0.73900
O496        O  0.21876559  0.74900028  0.08728876    -0.73500
O497        O  0.29689294  0.67578966  0.47918128    -0.74100
O498        O  0.27948441  0.75041068  0.08843653    -0.73700
O499        O  0.17621223  0.70441401  0.02081710    -0.74300
O500        O  0.20750970  0.82487109  0.47923543    -0.73700
O501        O  0.25193843  0.72027716  0.41390471    -0.74500
O502        O  0.17580332  0.79381789  0.02178341    -0.73900
O503        O  0.25079389  0.78109489  0.41428102    -0.74300
O504        O  0.29637280  0.82422860  0.47923864    -0.74200
O505        O  0.32540291  0.79462276  0.02470540    -0.74000
C506        C  0.32311529  0.67834173  0.00268036     0.77800
C507        C  0.18004657  0.67744524  0.99834166     0.78300
C508        C  0.24882855  0.74968870  0.10529372     0.77200
C509        C  0.17952731  0.82136529  0.00022367     0.77600
C510        C  0.25090744  0.75074858  0.39665221     0.78700
C511        C  0.32295729  0.82150522  0.00208758     0.77800
Zn512      Zn  0.20445861  0.74985178  0.21876801     1.49700
Zn513      Zn  0.24769184  0.70649031  0.28320338     1.49400
Zn514      Zn  0.29168137  0.74960089  0.21918465     1.49100
Zn515      Zn  0.24821232  0.79388018  0.28273022     1.49500
O516        O  0.24797455  0.74995376  0.25097942    -1.83500
O517        O  0.17337239  0.70532193  0.22865057    -0.74100
O518        O  0.29187885  0.67488047  0.27334819    -0.73900
O519        O  0.27850522  0.74981817  0.16428282    -0.73500
O520        O  0.20245610  0.67593743  0.27440295    -0.74100
O521        O  0.21779452  0.74941073  0.16372917    -0.73700
O522        O  0.32209024  0.70457659  0.22869888    -0.74300
O523        O  0.29292661  0.82449204  0.27296348    -0.73700
O524        O  0.24920919  0.72030305  0.33798740    -0.74500
O525        O  0.32318617  0.79392211  0.22879317    -0.73900
O526        O  0.24891363  0.78114165  0.33791849    -0.74300
O527        O  0.20372723  0.82498857  0.27271259    -0.74200
O528        O  0.17382503  0.79494698  0.22786580    -0.74000
C529        C  0.17574337  0.67866651  0.25158202     0.77800
C530        C  0.31897853  0.67757861  0.25106815     0.78300
C531        C  0.24830078  0.74963131  0.14656639     0.77200
C532        C  0.32021809  0.82116909  0.25101363     0.77600
C533        C  0.24962959  0.75077407  0.35538735     0.78700
C534        C  0.17681510  0.82213235  0.25016765     0.80200
C535        C  0.09378058  0.90542577  0.24776038    -0.04800
C536        C  0.11348217  0.89908279  0.28088521    -0.32300
C537        C  0.14062591  0.87211114  0.28207932     0.37000
C538        C  0.14841596  0.85102811  0.24969677    -0.05200
C539        C  0.12858057  0.85763690  0.21648394    -0.32200
C540        C  0.10165831  0.88484886  0.21530974     0.36900
H541        H  0.10749384  0.91489678  0.30597813     0.17300
O542        O  0.15890325  0.86621660  0.31521654    -0.59700
H543        H  0.13425760  0.84197276  0.19122141     0.17300
O544        O  0.08298929  0.89102575  0.18246210    -0.59800
H545        H  0.09644270  0.91105986  0.16979241     0.44300
H546        H  0.14430614  0.84756132  0.32873542     0.44200
C547        C  0.40359395  0.90400753  0.24974656    -0.04800
C548        C  0.38340229  0.89783505  0.28257718    -0.32300
C549        C  0.35612185  0.87103538  0.28340876     0.37000
C550        C  0.34897747  0.84965571  0.25107782    -0.05200
C551        C  0.36951964  0.85586005  0.21827412    -0.32200
C552        C  0.39653249  0.88292413  0.21743638     0.36900
H553        H  0.38890913  0.91384317  0.30764770     0.17300
O554        O  0.33760859  0.86504035  0.31637165    -0.59700
H555        H  0.36425619  0.84007207  0.19300625     0.17300
O556        O  0.41526126  0.88929169  0.18468632    -0.59800
H557        H  0.43655097  0.87249832  0.18547771     0.44300
H558        H  0.31835019  0.88414942  0.31721468     0.44200
C559        C  0.40230342  0.59450442  0.24935495    -0.04800
C560        C  0.38165572  0.60021135  0.28202653    -0.32300
C561        C  0.35452043  0.62722610  0.28310051     0.37000
C562        C  0.34749735  0.64878070  0.25094721    -0.05200
C563        C  0.36840522  0.64291285  0.21827958    -0.32200
C564        C  0.39548664  0.61588766  0.21730311     0.36900
H565        H  0.38694517  0.58392301  0.30688572     0.17300
O566        O  0.33557119  0.63274558  0.31592533    -0.59700
H567        H  0.36351900  0.65908204  0.19325868     0.17300
O568        O  0.41543094  0.61075303  0.18504927    -0.59800
H569        H  0.40290963  0.59066156  0.17139545     0.44300
H570        H  0.35006346  0.65100759  0.33021915     0.44200
C571        C  0.14707617  0.65004479  0.25107597    -0.04800
C572        C  0.12766675  0.64328777  0.21760389    -0.32300
C573        C  0.10072196  0.61619409  0.21603034     0.37000
C574        C  0.09272043  0.59543543  0.24818736    -0.05200
C575        C  0.11178656  0.60210276  0.28168966    -0.32200
C576        C  0.13889160  0.62909396  0.28332678     0.36900
H577        H  0.13367983  0.65877136  0.19239923     0.17300
O578        O  0.08280431  0.60965552  0.18279903    -0.59700
H579        H  0.10542082  0.58644890  0.30669788     0.17300
O580        O  0.15606071  0.63580414  0.31695175    -0.59800
H581        H  0.17503049  0.61651771  0.31914971     0.44300
H582        H  0.06170111  0.62670693  0.18286262     0.44200
C583        C  0.15071045  0.84984506  0.99954007    -0.04800
C584        C  0.12676309  0.85338459  0.03028476    -0.32300
C585        C  0.09941379  0.88014984  0.03043565     0.37000
C586        C  0.09538869  0.90358860  0.99940098    -0.05200
C587        C  0.11909423  0.90018899  0.46861567    -0.32200
C588        C  0.14654545  0.87354921  0.46841769     0.36900
H589        H  0.12948623  0.83564456  0.05450992     0.17300
O590        O  0.07663782  0.88315140  0.06093110    -0.59700
H591        H  0.11608049  0.91815621  0.44459308     0.17300
O592        O  0.16875766  0.87068433  0.43746487    -0.59800
H593        H  0.15618987  0.85324974  0.42040486     0.44300
H594        H  0.08794100  0.90205927  0.07724948     0.44200
C595        C  0.35160283  0.85016975  0.00204152    -0.04800
C596        C  0.35573580  0.87264565  0.47026202    -0.32300
C597        C  0.38241010  0.89999185  0.46932308     0.37000
C598        C  0.40546496  0.90525574  0.00039720    -0.05200
C599        C  0.40145962  0.88315035  0.03226053    -0.32200
C600        C  0.37492128  0.85563708  0.03324117     0.36900
H601        H  0.33843281  0.86885077  0.44583044     0.17300
O602        O  0.38640519  0.92084919  0.43755473    -0.59700
H603        H  0.41908354  0.88724350  0.05640604     0.17300
O604        O  0.37127984  0.83513697  0.06529607    -0.59800
H605        H  0.39039879  0.81595198  0.06343516     0.44300
H606        H  0.36936382  0.94172892  0.44091052     0.44200
C607        C  0.35182747  0.64960240  0.00300905    -0.04800
C608        C  0.35601671  0.62672174  0.47137579    -0.32300
C609        C  0.38333797  0.59997399  0.47028373     0.37000
C610        C  0.40694127  0.59550777  0.00112648    -0.05200
C611        C  0.40268448  0.61777723  0.03298586    -0.32200
C612        C  0.37523255  0.64452338  0.03424903     0.36900
H613        H  0.33837975  0.62985704  0.44711249     0.17300
O614        O  0.38672407  0.57815060  0.43902101    -0.59700
H615        H  0.42048852  0.61410823  0.05705144     0.17300
O616        O  0.37135940  0.66517720  0.06628866    -0.59800
H617        H  0.35380688  0.65148978  0.08216971     0.44300
H618        H  0.40551494  0.59020661  0.42325293     0.44200
C619        C  0.15162814  0.64849529  0.99726847    -0.04800
C620        C  0.12793889  0.64432829  0.02811497    -0.32300
C621        C  0.10084450  0.61735773  0.02801997     0.37000
C622        C  0.09688305  0.59408907  0.99675359    -0.05200
C623        C  0.12041152  0.59796664  0.46595796    -0.32200
C624        C  0.14770928  0.62482126  0.46603348     0.36900
H625        H  0.13060703  0.66180143  0.05263097     0.17300
O626        O  0.07886568  0.61327476  0.05897629    -0.59700
H627        H  0.11745997  0.58016790  0.44171463     0.17300
O628        O  0.16949284  0.62844048  0.43486500    -0.59800
H629        H  0.18893717  0.60973531  0.43784333     0.44300
H630        H  0.05899735  0.63148146  0.05576702     0.44200
N631        N  0.05730526  0.49904522  0.49533557    -0.36000
N632        N  0.50069352  0.94317107  0.49964710    -0.56500
N633        N  0.44513407  0.00005179  0.49800661    -0.36000
N634        N  0.50175175  0.55596526  0.49873246    -0.56500
C635        C  0.07782241  0.96917183  0.50307724     0.27600
C636        C  0.07844962  0.52878023  0.50167601     0.27600
C637        C  0.42414086  0.97044688  0.50516901     0.27600
C638        C  0.42478851  0.53005984  0.50579861     0.27600
C639        C  0.03003419  0.92124412  0.49459564     0.36200
C640        C  0.47095375  0.92182777  0.49479995     0.36200
C641        C  0.03127504  0.57704888  0.49177407     0.36200
C642        C  0.47217350  0.57767867  0.49411203     0.36200
C643        C  0.11256365  0.98004689  0.51392985    -0.21300
C644        C  0.11296875  0.51765035  0.51300680    -0.21300
C645        C  0.38986939  0.98176159  0.51712521    -0.21300
C646        C  0.39029564  0.51938050  0.51759186    -0.21300
C647        C  0.01889946  0.88574773  0.48692757    -0.22300
C648        C  0.48144644  0.88612333  0.48702742    -0.22300
C649        C  0.02041164  0.61235673  0.48291316    -0.22300
C650        C  0.48295081  0.61277722  0.48448505    -0.22300
C651        C  0.06674022  0.93231264  0.49886707    -0.17700
C652        C  0.06793842  0.56564553  0.49610331    -0.17700
C653        C  0.43566062  0.56680203  0.50036674    -0.17700
C654        C  0.43447586  0.93352076  0.49963440    -0.17700
H655        H  0.13534311  0.96268402  0.52162858     0.15200
H656        H  0.13610283  0.53482801  0.51987888     0.15200
H657        H  0.36685755  0.96468813  0.52458685     0.15200
H658        H  0.36763047  0.53687961  0.52539815     0.15200
H659        H  0.03596249  0.86198900  0.48203283     0.13500
H660        H  0.46395899  0.86269729  0.48228728     0.13500
H661        H  0.03769789  0.63551956  0.47647804     0.13500
H662        H  0.46564405  0.63628965  0.47935987     0.13500
H663        H  0.03179726  0.49904367  0.48260708     0.26800
H664        H  0.47027720  0.49980686  0.48456834     0.26800
N665        N  0.44190309  0.99949506  0.75118152    -0.36000
N666        N  0.99771324  0.55634490  0.74728638    -0.56500
N667        N  0.05412465  0.00022788  0.74896949    -0.36000
N668        N  0.99834801  0.94334043  0.74777554    -0.56500
C669        C  0.42066087  0.52917657  0.74488954     0.27600
C670        C  0.42105252  0.96952020  0.74504991     0.27600
C671        C  0.07482243  0.53011073  0.74211950     0.27600
C672        C  0.07511094  0.97047264  0.74206639     0.27600
C673        C  0.46804323  0.57788658  0.75218380     0.36200
C674        C  0.02718532  0.57824052  0.75141871     0.36200
C675        C  0.46904038  0.92157828  0.75335940     0.36200
C676        C  0.02817363  0.92199596  0.75244661     0.36200
C677        C  0.38570046  0.51792569  0.73526463    -0.21300
C678        C  0.38595092  0.98030409  0.73535419    -0.21300
C679        C  0.10954085  0.51921572  0.73115045    -0.21300
C680        C  0.10971458  0.98158314  0.73107815    -0.21300
C681        C  0.47871679  0.61373391  0.75875821    -0.22300
C682        C  0.01617412  0.61395264  0.75828737    -0.22300
C683        C  0.48028489  0.88613707  0.76109596    -0.22300
C684        C  0.01775966  0.88640220  0.76053117    -0.22300
C685        C  0.43137952  0.56616261  0.74906325    -0.17700
C686        C  0.43223735  0.93270357  0.74959532    -0.17700
C687        C  0.06465734  0.93361232  0.74749529    -0.17700
C688        C  0.06391245  0.56692756  0.74732446    -0.17700
H689        H  0.36236055  0.53504627  0.72888569     0.15200
H690        H  0.36283292  0.96288130  0.72910587     0.15200
H691        H  0.13246910  0.53657800  0.72413574     0.15200
H692        H  0.13282765  0.96436570  0.72404981     0.15200
H693        H  0.46133797  0.63733618  0.76325743     0.13500
H694        H  0.03332107  0.63775558  0.76228611     0.13500
H695        H  0.46326698  0.86249179  0.76633861     0.13500
H696        H  0.03531581  0.86298850  0.76523264     0.13500
H697        H  0.46781686  0.99972450  0.76292742     0.26800
H698        H  0.02873808  0.00014534  0.76187776     0.26800
Zn699      Zn  0.29411325  0.75006845  0.53393286     1.49700
Zn700      Zn  0.25219079  0.70646276  0.96872689     1.49400
Zn701      Zn  0.20673813  0.74924833  0.53188830     1.49100
Zn702      Zn  0.25163434  0.79369632  0.96942983     1.49500
O703        O  0.25115005  0.74986382  0.50105656    -1.83500
O704        O  0.32519932  0.70518013  0.52546421    -0.74100
O705        O  0.20787346  0.67485780  0.97702337    -0.73900
O706        O  0.21877209  0.74902610  0.58729946    -0.73500
O707        O  0.29692693  0.67580820  0.97918013    -0.74100
O708        O  0.27949245  0.75038831  0.58844482    -0.73700
O709        O  0.17618056  0.70447570  0.52082453    -0.74300
O710        O  0.20744752  0.82482955  0.97921919    -0.73700
O711        O  0.25195925  0.72026819  0.91389521    -0.74500
O712        O  0.17584070  0.79387210  0.52178901    -0.73900
O713        O  0.25077265  0.78108557  0.91427302    -0.74300
O714        O  0.29631257  0.82426109  0.97922306    -0.74200
O715        O  0.32544252  0.79458398  0.52472990    -0.74000
C716        C  0.32308378  0.67831033  0.50268014     0.77800
C717        C  0.18000602  0.67750359  0.49835177     0.78300
C718        C  0.24883693  0.74968758  0.60530274     0.77200
C719        C  0.17958347  0.82141990  0.50023370     0.77600
C720        C  0.25091010  0.75073977  0.89664408     0.78700
C721        C  0.32301442  0.82146280  0.50210583     0.77800
Zn722      Zn  0.20447370  0.74984852  0.71877007     1.49700
Zn723      Zn  0.24770798  0.70648302  0.78319926     1.49400
Zn724      Zn  0.29169989  0.74960150  0.71919206     1.49100
Zn725      Zn  0.24821969  0.79387696  0.78272766     1.49500
O726        O  0.24799065  0.74994995  0.75098015    -1.83500
O727        O  0.17337657  0.70532903  0.72865685    -0.74100
O728        O  0.29189820  0.67487010  0.77335372    -0.73900
O729        O  0.27851795  0.74981096  0.66428980    -0.73500
O730        O  0.20246965  0.67593413  0.77439493    -0.74100
O731        O  0.21780679  0.74940447  0.66373689    -0.73700
O732        O  0.32211748  0.70458072  0.72872059    -0.74300
O733        O  0.29292488  0.82449771  0.77296417    -0.73700
O734        O  0.24921970  0.72029610  0.83798019    -0.74500
O735        O  0.32319247  0.79393515  0.72879469    -0.73900
O736        O  0.24891983  0.78113527  0.83791328    -0.74300
O737        O  0.20373611  0.82498270  0.77270465    -0.74200
O738        O  0.17384617  0.79494386  0.72784865    -0.74000
C739        C  0.17575083  0.67866920  0.75158225     0.77800
C740        C  0.31900387  0.67757608  0.75108233     0.78300
C741        C  0.24831240  0.74962545  0.64657437     0.77200
C742        C  0.32021715  0.82118161  0.75101515     0.77600
C743        C  0.24963681  0.75076674  0.85538042     0.78700
C744        C  0.17683089  0.82212781  0.75015119     0.80200
C745        C  0.09378492  0.90540348  0.74774170    -0.04800
C746        C  0.11348572  0.89906221  0.78086645    -0.32300
C747        C  0.14062999  0.87209302  0.78206110     0.37000
C748        C  0.14843004  0.85101949  0.74967560    -0.05200
C749        C  0.12859337  0.85762390  0.71646209    -0.32200
C750        C  0.10165958  0.88482401  0.71529123     0.36900
H751        H  0.10749331  0.91487293  0.80596043     0.17300
O752        O  0.15889336  0.86618603  0.81520402    -0.59700
H753        H  0.13427252  0.84195990  0.69119991     0.17300
O754        O  0.08297043  0.89097826  0.68245070    -0.59800
H755        H  0.09630709  0.91112918  0.66984610     0.44300
H756        H  0.14427775  0.84754256  0.82871915     0.44200
C757        C  0.40360741  0.90400406  0.74978342    -0.04800
C758        C  0.38340572  0.89783248  0.78260754    -0.32300
C759        C  0.35611495  0.87104287  0.78342487     0.37000
C760        C  0.34897280  0.84967148  0.75108715    -0.05200
C761        C  0.36952097  0.85587991  0.71828869    -0.32200
C762        C  0.39654324  0.88293432  0.71746510     0.36900
H763        H  0.38891118  0.91383425  0.80768264     0.17300
O764        O  0.33758906  0.86504928  0.81638052    -0.59700
H765        H  0.36425726  0.84010050  0.69301524     0.17300
O766        O  0.41527943  0.88930668  0.68472055    -0.59800
H767        H  0.43656548  0.87250865  0.68551168     0.44300
H768        H  0.31832338  0.88415159  0.81720899     0.44200
C769        C  0.40232545  0.59449278  0.74933291    -0.04800
C770        C  0.38166511  0.60017375  0.78200150    -0.32300
C771        C  0.35452933  0.62718907  0.78308910     0.37000
C772        C  0.34752313  0.64877591  0.75095399    -0.05200
C773        C  0.36844136  0.64293059  0.71828909    -0.32200
C774        C  0.39551694  0.61589996  0.71729664     0.36900
H775        H  0.38694339  0.58386289  0.80684766     0.17300
O776        O  0.33555962  0.63267295  0.81590762    -0.59700
H777        H  0.36356469  0.65911904  0.69327953     0.17300
O778        O  0.41545987  0.61077924  0.68503983    -0.59800
H779        H  0.40291457  0.59072054  0.67135834     0.44300
H780        H  0.35005783  0.65089775  0.83024518     0.44200
C781        C  0.14708423  0.65004571  0.75107392    -0.04800
C782        C  0.12765084  0.64331497  0.71761095    -0.32300
C783        C  0.10071828  0.61620963  0.71602918     0.37000
C784        C  0.09274926  0.59541447  0.74816981    -0.05200
C785        C  0.11183828  0.60205619  0.78166412    -0.32200
C786        C  0.13893259  0.62905807  0.78330865     0.36900
H787        H  0.13363800  0.65882590  0.69241757     0.17300
O788        O  0.08278174  0.60969455  0.68280383    -0.59700
H789        H  0.10549758  0.58637500  0.80666097     0.17300
O790        O  0.15612659  0.63573757  0.81692633    -0.59800
H791        H  0.17515777  0.61650345  0.81904551     0.44300
H792        H  0.06166308  0.62672652  0.68290534     0.44200
C793        C  0.15077524  0.84990880  0.49954237    -0.04800
C794        C  0.12678160  0.85341175  0.53025293    -0.32300
C795        C  0.09942486  0.88016812  0.53038911     0.37000
C796        C  0.09543614  0.90363483  0.49937143    -0.05200
C797        C  0.11899869  0.90010404  0.96861108    -0.32200
C798        C  0.14643858  0.87345210  0.96839564     0.36900
H799        H  0.12947100  0.83564692  0.55446278     0.17300
O800        O  0.07660526  0.88313235  0.56085382    -0.59700
H801        H  0.11595431  0.91804784  0.94457402     0.17300
O802        O  0.16859915  0.87054029  0.93740785    -0.59800
H803        H  0.15589409  0.85325213  0.92029847     0.44300
H804        H  0.08785215  0.90206472  0.57718361     0.44200
C805        C  0.35167257  0.85011549  0.50205393    -0.04800
C806        C  0.35568834  0.87268264  0.97023954    -0.32300
C807        C  0.38237115  0.90002171  0.96930224     0.37000
C808        C  0.40551988  0.90521716  0.50040643    -0.05200
C809        C  0.40154684  0.88308587  0.53225569    -0.32200
C810        C  0.37501659  0.85556378  0.53323740     0.36900
H811        H  0.33840064  0.86887549  0.94579847     0.17300
O812        O  0.38639145  0.92086192  0.93752527    -0.59700
H813        H  0.41918812  0.88716720  0.55638985     0.17300
O814        O  0.37140982  0.83503642  0.56527788    -0.59800
H815        H  0.39050512  0.81583288  0.56336069     0.44300
H816        H  0.36936059  0.94175293  0.94086316     0.44200
C817        C  0.35178756  0.64956072  0.50300715    -0.04800
C818        C  0.35610864  0.62681261  0.97134841    -0.32300
C819        C  0.38343141  0.60006735  0.97026050     0.37000
C820        C  0.40690249  0.59546559  0.50111404    -0.05200
C821        C  0.40269508  0.61778157  0.53294542    -0.32200
C822        C  0.37524216  0.64452537  0.53421588     0.36900
H823        H  0.33851106  0.62998523  0.94705990     0.17300
O824        O  0.38687063  0.57829366  0.93896740    -0.59700
H825        H  0.42054060  0.61415185  0.55698485     0.17300
O826        O  0.37142112  0.66522347  0.56623190    -0.59800
H827        H  0.35387195  0.65157276  0.58215038     0.44300
H828        H  0.40568663  0.59037633  0.92325279     0.44200
C829        C  0.15157390  0.64856567  0.49726844    -0.04800
C830        C  0.12781355  0.64446281  0.52806693    -0.32300
C831        C  0.10072268  0.61748754  0.52796817     0.37000
C832        C  0.09683628  0.59414942  0.49674510    -0.05200
C833        C  0.12039464  0.59796200  0.96592172    -0.32200
C834        C  0.14769743  0.62481308  0.96599319     0.36900
H835        H  0.13042553  0.66198604  0.55255161     0.17300
O836        O  0.07867926  0.61346335  0.55888436    -0.59700
H837        H  0.11738544  0.58021489  0.94164607     0.17300
O838        O  0.16941286  0.62849856  0.93478267    -0.59800
H839        H  0.18886502  0.60978865  0.93767532     0.44300
H840        H  0.05883555  0.63168623  0.55561225     0.44200
N841        N  0.55729924  0.99901043  0.99534839    -0.36000
N842        N  0.00065942  0.44316344  0.99966126    -0.56500
N843        N  0.94512799  0.50007383  0.99801287    -0.36000
N844        N  0.00177465  0.05596011  0.99874172    -0.56500
C845        C  0.57779674  0.46912912  0.00311375     0.27600
C846        C  0.57845534  0.02873565  0.00169593     0.27600
C847        C  0.92410903  0.47047826  0.00513695     0.27600
C848        C  0.92478702  0.03009143  0.00577969     0.27600
C849        C  0.52999130  0.42121768  0.99464249     0.36200
C850        C  0.97091078  0.42182902  0.99483110     0.36200
C851        C  0.53130944  0.07703483  0.99180571     0.36200
C852        C  0.97220816  0.07769734  0.99415896     0.36200
C853        C  0.61253549  0.47998914  0.01398986    -0.21300
C854        C  0.61296064  0.01759170  0.01305576    -0.21300
C855        C  0.88982491  0.48180924  0.01703864    -0.21300
C856        C  0.89027002  0.01942699  0.01751328    -0.21300
C857        C  0.51884253  0.38571772  0.98701544    -0.22300
C858        C  0.98138990  0.38611047  0.98710605    -0.22300
C859        C  0.52046542  0.11236212  0.98300123    -0.22300
C860        C  0.98300534  0.11280344  0.98458366    -0.22300
C861        C  0.56670114  0.43227432  0.99890723    -0.17700
C862        C  0.56796706  0.06560502  0.99611374    -0.17700
C863        C  0.93568679  0.06683182  0.00038597    -0.17700
C864        C  0.93443457  0.43354521  0.99962813    -0.17700
H865        H  0.63529915  0.46261619  0.02171400     0.15200
H866        H  0.63609701  0.03476006  0.01994417     0.15200
H867        H  0.86679270  0.46474747  0.02446197     0.15200
H868        H  0.86760163  0.03693518  0.02528782     0.15200
H869        H  0.53589570  0.36194509  0.98215540     0.13500
H870        H  0.96389374  0.36268654  0.98238961     0.13500
H871        H  0.53776404  0.13552468  0.97659996     0.13500
H872        H  0.96571236  0.13633418  0.97949759     0.13500
H873        H  0.53180073  0.99901916  0.98259878     0.26800
H874        H  0.97029325  0.99981754  0.98462146     0.26800
N875        N  0.94187694  0.49950326  0.25118320    -0.36000
N876        N  0.49768837  0.05635947  0.24732922    -0.56500
N877        N  0.55411013  0.50024659  0.24899344    -0.36000
N878        N  0.49833591  0.44335468  0.24775888    -0.56500
C879        C  0.92063426  0.02918759  0.24492008     0.27600
C880        C  0.92103102  0.46952958  0.24504250     0.27600
C881        C  0.57479872  0.03013281  0.24214220     0.27600
C882        C  0.57509818  0.47049486  0.24209209     0.27600
C883        C  0.96801740  0.07789961  0.25222321     0.36200
C884        C  0.52715857  0.07825896  0.25145064     0.36200
C885        C  0.96902748  0.42158413  0.25330723     0.36200
C886        C  0.52816191  0.42200945  0.25243010     0.36200
C887        C  0.88567032  0.01793882  0.23530603    -0.21300
C888        C  0.88592415  0.48031682  0.23537156    -0.21300
C889        C  0.60951818  0.01924289  0.23117187    -0.21300
C890        C  0.60969911  0.48161075  0.23110321    -0.21300
C891        C  0.97868847  0.11374973  0.25878834    -0.22300
C892        C  0.51614577  0.11397204  0.25831174    -0.22300
C893        C  0.98027272  0.38613743  0.26101698    -0.22300
C894        C  0.51774736  0.38640776  0.26047616    -0.22300
C895        C  0.93135470  0.06617355  0.24909859    -0.17700
C896        C  0.93222224  0.43270979  0.24955368    -0.17700
C897        C  0.56464872  0.43363239  0.24751157    -0.17700
C898        C  0.56388511  0.06694854  0.24734755    -0.17700
H899        H  0.86232647  0.03506069  0.22894710     0.15200
H900        H  0.86280555  0.46289584  0.22912137     0.15200
H901        H  0.63244277  0.03660823  0.22415381     0.15200
H902        H  0.63281393  0.46439707  0.22407241     0.15200
H903        H  0.96130803  0.13735228  0.26328002     0.13500
H904        H  0.53329138  0.13777792  0.26229788     0.13500
H905        H  0.96325566  0.36248553  0.26623121     0.13500
H906        H  0.53530325  0.36299208  0.26516805     0.13500
H907        H  0.96778996  0.49972785  0.26293051     0.26800
H908        H  0.52873207  0.50015904  0.26192049     0.26800
Zn909      Zn  0.79410589  0.25008794  0.03392165     1.49700
Zn910      Zn  0.75217266  0.20647342  0.46873758     1.49400
Zn911      Zn  0.70673272  0.24921154  0.03187794     1.49100
Zn912      Zn  0.75167136  0.29370300  0.46944149     1.49500
O913        O  0.75114286  0.24985482  0.00104519    -1.83500
O914        O  0.82521972  0.20521355  0.02546345    -0.74100
O915        O  0.70783842  0.17490048  0.47704333    -0.73900
O916        O  0.71876548  0.24900021  0.08728878    -0.73500
O917        O  0.79689294  0.17578969  0.47918132    -0.74100
O918        O  0.77948432  0.25041064  0.08843651    -0.73700
O919        O  0.67621225  0.20441388  0.02081718    -0.74300
O920        O  0.70750965  0.32487106  0.47923538    -0.73700
O921        O  0.75193850  0.22027717  0.41390465    -0.74500
O922        O  0.67580323  0.29381786  0.02178336    -0.73900
O923        O  0.75079396  0.28109491  0.41428099    -0.74300
O924        O  0.79637283  0.32422858  0.47923865    -0.74200
O925        O  0.82540301  0.29462267  0.02470536    -0.74000
C926        C  0.82311537  0.17834177  0.00268035     0.77800
C927        C  0.68004658  0.17744518  0.99834163     0.78300
C928        C  0.74882845  0.24968866  0.10529372     0.77200
C929        C  0.67952726  0.32136530  0.00022367     0.77600
C930        C  0.75090745  0.25074860  0.39665219     0.78700
C931        C  0.82295738  0.32150514  0.00208758     0.77800
Zn932      Zn  0.70445864  0.24985182  0.21876802     1.49700
Zn933      Zn  0.74769185  0.20649033  0.28320337     1.49400
Zn934      Zn  0.79168143  0.24960091  0.21918464     1.49100
Zn935      Zn  0.74821231  0.29388019  0.28273021     1.49500
O936        O  0.74797462  0.24995380  0.25097942    -1.83500
O937        O  0.67337240  0.20532196  0.22865056    -0.74100
O938        O  0.79187883  0.17488049  0.27334814    -0.73900
O939        O  0.77850515  0.24981818  0.16428280    -0.73500
O940        O  0.70245609  0.17593744  0.27440293    -0.74100
O941        O  0.71779445  0.24941076  0.16372918    -0.73700
O942        O  0.82209029  0.20457664  0.22869891    -0.74300
O943        O  0.79292659  0.32449202  0.27296344    -0.73700
O944        O  0.74920906  0.22030301  0.33798742    -0.74500
O945        O  0.82318623  0.29392208  0.22879320    -0.73900
O946        O  0.74891350  0.28114161  0.33791847    -0.74300
O947        O  0.70372721  0.32498858  0.27271252    -0.74200
O948        O  0.67382492  0.29494696  0.22786583    -0.74000
C949        C  0.67574335  0.17866655  0.25158203     0.77800
C950        C  0.81897854  0.17757864  0.25106816     0.78300
C951        C  0.74830071  0.24963130  0.14656638     0.77200
C952        C  0.82021807  0.32116908  0.25101363     0.77600
C953        C  0.74962947  0.25077404  0.35538735     0.78700
C954        C  0.67681504  0.32213235  0.25016765     0.80200
C955        C  0.59378056  0.40542582  0.24776039    -0.04800
C956        C  0.61348222  0.39908286  0.28088521    -0.32300
C957        C  0.64062593  0.37211119  0.28207931     0.37000
C958        C  0.64841591  0.35102813  0.24969677    -0.05200
C959        C  0.62858050  0.35763695  0.21648395    -0.32200
C960        C  0.60165823  0.38484888  0.21530977     0.36900
H961        H  0.60749394  0.41489686  0.30597813     0.17300
O962        O  0.65890333  0.36621665  0.31521651    -0.59700
H963        H  0.63425754  0.34197284  0.19122139     0.17300
O964        O  0.58298915  0.39102577  0.18246213    -0.59800
H965        H  0.59644262  0.41105980  0.16979234     0.44300
H966        H  0.64430616  0.34756152  0.32873551     0.44200
C967        C  0.90359397  0.40400751  0.24974655    -0.04800
C968        C  0.88340227  0.39783504  0.28257716    -0.32300
C969        C  0.85612185  0.37103534  0.28340875     0.37000
C970        C  0.84897743  0.34965573  0.25107780    -0.05200
C971        C  0.86951958  0.35586008  0.21827410    -0.32200
C972        C  0.89653252  0.38292407  0.21743640     0.36900
H973        H  0.88890913  0.41384316  0.30764768     0.17300
O974        O  0.83760869  0.36504018  0.31637168    -0.59700
H975        H  0.86425607  0.34007211  0.19300624     0.17300
O976        O  0.91526130  0.38929165  0.18468633    -0.59800
H977        H  0.93655105  0.37249833  0.18547772     0.44300
H978        H  0.81835030  0.38414928  0.31721486     0.44200
C979        C  0.90230340  0.09450441  0.24935492    -0.04800
C980        C  0.88165557  0.10021127  0.28202643    -0.32300
C981        C  0.85452032  0.12722603  0.28310043     0.37000
C982        C  0.84749732  0.14878071  0.25094720    -0.05200
C983        C  0.86840517  0.14291283  0.21827957    -0.32200
C984        C  0.89548659  0.11588764  0.21730310     0.36900
H985        H  0.88694493  0.08392282  0.30688560     0.17300
O986        O  0.83557094  0.13274537  0.31592520    -0.59700
H987        H  0.86351893  0.15908204  0.19325868     0.17300
O988        O  0.91543096  0.11075309  0.18504931    -0.59800
H989        H  0.90290974  0.09066160  0.17139543     0.44300
H990        H  0.85006319  0.15100731  0.33021918     0.44200
C991        C  0.64707610  0.15004485  0.25107600    -0.04800
C992        C  0.62766675  0.14328771  0.21760390    -0.32300
C993        C  0.60072200  0.11619399  0.21603034     0.37000
C994        C  0.59272043  0.09543540  0.24818738    -0.05200
C995        C  0.61178655  0.10210281  0.28168965    -0.32200
C996        C  0.63889155  0.12909405  0.28332682     0.36900
H997        H  0.63367981  0.15877128  0.19239922     0.17300
O998        O  0.58280420  0.10965552  0.18279909    -0.59700
H999        H  0.60542082  0.08644892  0.30669790     0.17300
O1000       O  0.65606076  0.13580416  0.31695175    -0.59800
H1001       H  0.67503052  0.11651771  0.31914960     0.44300
H1002       H  0.56170115  0.12670708  0.18286276     0.44200
C1003       C  0.65071039  0.34984505  0.99954005    -0.04800
C1004       C  0.62676304  0.35338458  0.03028474    -0.32300
C1005       C  0.59941379  0.38014988  0.03043566     0.37000
C1006       C  0.59538868  0.40358866  0.99940100    -0.05200
C1007       C  0.61909427  0.40018905  0.46861570    -0.32200
C1008       C  0.64654543  0.37354923  0.46841771     0.36900
H1009       H  0.62948617  0.33564455  0.05450990     0.17300
O1010       O  0.57663786  0.38315145  0.06093113    -0.59700
H1011       H  0.61608056  0.41815626  0.44459310     0.17300
O1012       O  0.66875758  0.37068431  0.43746484    -0.59800
H1013       H  0.65618969  0.35324976  0.42040486     0.44300
H1014       H  0.58794115  0.40205916  0.07724958     0.44200
C1015       C  0.85160291  0.35016969  0.00204152    -0.04800
C1016       C  0.85573579  0.37264562  0.47026204    -0.32300
C1017       C  0.88241007  0.39999184  0.46932309     0.37000
C1018       C  0.90546500  0.40525571  0.00039717    -0.05200
C1019       C  0.90145967  0.38315032  0.03226051    -0.32200
C1020       C  0.87492135  0.35563704  0.03324116     0.36900
H1021       H  0.83843283  0.36885069  0.44583045     0.17300
O1022       O  0.88640504  0.42084924  0.43755476    -0.59700
H1023       H  0.91908357  0.38724348  0.05640602     0.17300
O1024       O  0.87127993  0.33513697  0.06529608    -0.59800
H1025       H  0.89039880  0.31595189  0.06343509     0.44300
H1026       H  0.86936370  0.44172898  0.44091066     0.44200
C1027       C  0.85182753  0.14960246  0.00300905    -0.04800
C1028       C  0.85601673  0.12672176  0.47137587    -0.32300
C1029       C  0.88333800  0.09997406  0.47028374     0.37000
C1030       C  0.90694121  0.09550773  0.00112653    -0.05200
C1031       C  0.90268437  0.11777716  0.03298589    -0.32200
C1032       C  0.87523256  0.14452342  0.03424904     0.36900
H1033       H  0.83837972  0.12985705  0.44711256     0.17300
O1034       O  0.88672415  0.07815079  0.43902093    -0.59700
H1035       H  0.92048836  0.11410809  0.05705154     0.17300
O1036       O  0.87135944  0.16517724  0.06628867    -0.59800
H1037       H  0.85380703  0.15148976  0.08216981     0.44300
H1038       H  0.90551497  0.09020691  0.42325293     0.44200
C1039       C  0.65162818  0.14849524  0.99726843    -0.04800
C1040       C  0.62793895  0.14432822  0.02811496    -0.32300
C1041       C  0.60084458  0.11735767  0.02801999     0.37000
C1042       C  0.59688306  0.09408907  0.99675358    -0.05200
C1043       C  0.62041150  0.09796663  0.46595792    -0.32200
C1044       C  0.64770921  0.12482133  0.46603334     0.36900
H1045       H  0.63060707  0.16180138  0.05263095     0.17300
O1046       O  0.57886575  0.11327475  0.05897630    -0.59700
H1047       H  0.61745993  0.08016787  0.44171464     0.17300
O1048       O  0.66949267  0.12844053  0.43486481    -0.59800
H1049       H  0.68893714  0.10973551  0.43784323     0.44300
H1050       H  0.55899746  0.13148149  0.05576699     0.44200
N1051       N  0.55730526  0.99904522  0.49533559    -0.36000
N1052       N  0.00069351  0.44317102  0.49964715    -0.56500
N1053       N  0.94513405  0.50005180  0.49800661    -0.36000
N1054       N  0.00175168  0.05596527  0.49873245    -0.56500
C1055       C  0.57782239  0.46917183  0.50307730     0.27600
C1056       C  0.57844961  0.02878024  0.50167602     0.27600
C1057       C  0.92414085  0.47044689  0.50516900     0.27600
C1058       C  0.92478848  0.03005982  0.50579860     0.27600
C1059       C  0.53003419  0.42124412  0.49459564     0.36200
C1060       C  0.97095374  0.42182772  0.49480008     0.36200
C1061       C  0.53127507  0.07704889  0.49177407     0.36200
C1062       C  0.97217345  0.07767866  0.49411202     0.36200
C1063       C  0.61256361  0.48004694  0.51392998    -0.21300
C1064       C  0.61296880  0.01765038  0.51300678    -0.21300
C1065       C  0.88986936  0.48176163  0.51712522    -0.21300
C1066       C  0.89029560  0.01938050  0.51759187    -0.21300
C1067       C  0.51889941  0.38574779  0.48692761    -0.22300
C1068       C  0.98144641  0.38612326  0.48702750    -0.22300
C1069       C  0.52041165  0.11235672  0.48291318    -0.22300
C1070       C  0.98295073  0.11277722  0.48448508    -0.22300
C1071       C  0.56674024  0.43231264  0.49886706    -0.17700
C1072       C  0.56793845  0.06564555  0.49610332    -0.17700
C1073       C  0.93566056  0.06680201  0.50036672    -0.17700
C1074       C  0.93447584  0.43352075  0.49963442    -0.17700
H1075       H  0.63534306  0.46268404  0.52162874     0.15200
H1076       H  0.63610282  0.03482804  0.51987891     0.15200
H1077       H  0.86685753  0.46468817  0.52458690     0.15200
H1078       H  0.86763046  0.03687964  0.52539816     0.15200
H1079       H  0.53596250  0.36198902  0.48203282     0.13500
H1080       H  0.96395898  0.36269725  0.48228726     0.13500
H1081       H  0.53769790  0.13551960  0.47647808     0.13500
H1082       H  0.96564393  0.13628966  0.47935996     0.13500
H1083       H  0.53179723  0.99904368  0.48260713     0.26800
H1084       H  0.97027716  0.99980686  0.48456838     0.26800
N1085       N  0.94190306  0.49949501  0.75118148    -0.36000
N1086       N  0.49771325  0.05634494  0.74728638    -0.56500
N1087       N  0.55412457  0.50022786  0.74896948    -0.36000
N1088       N  0.49834802  0.44334042  0.74777555    -0.56500
C1089       C  0.92066090  0.02917660  0.74488952     0.27600
C1090       C  0.92105256  0.46952019  0.74504988     0.27600
C1091       C  0.57482246  0.03011073  0.74211962     0.27600
C1092       C  0.57511097  0.47047264  0.74206636     0.27600
C1093       C  0.96804325  0.07788660  0.75218380     0.36200
C1094       C  0.52718532  0.07824056  0.75141871     0.36200
C1095       C  0.96904038  0.42157828  0.75335940     0.36200
C1096       C  0.52817366  0.42199595  0.75244661     0.36200
C1097       C  0.88570047  0.01792574  0.73526458    -0.21300
C1098       C  0.88595097  0.48030406  0.73535417    -0.21300
C1099       C  0.60954089  0.01921570  0.73115052    -0.21300
C1100       C  0.60971461  0.48158310  0.73107808    -0.21300
C1101       C  0.97871678  0.11373392  0.75875821    -0.22300
C1102       C  0.51617417  0.11395271  0.75828736    -0.22300
C1103       C  0.98028489  0.38613707  0.76109597    -0.22300
C1104       C  0.51775966  0.38640220  0.76053118    -0.22300
C1105       C  0.93137955  0.06616263  0.74906325    -0.17700
C1106       C  0.93223737  0.43270355  0.74959532    -0.17700
C1107       C  0.56465737  0.43361231  0.74749525    -0.17700
C1108       C  0.56391247  0.06692758  0.74732450    -0.17700
H1109       H  0.86236061  0.03504631  0.72888562     0.15200
H1110       H  0.86283300  0.46288122  0.72910591     0.15200
H1111       H  0.63246913  0.03657796  0.72413577     0.15200
H1112       H  0.63282764  0.46436567  0.72404972     0.15200
H1113       H  0.96133797  0.13733621  0.76325743     0.13500
H1114       H  0.53332115  0.13775559  0.76228611     0.13500
H1115       H  0.96326698  0.36249179  0.76633862     0.13500
H1116       H  0.53531578  0.36298849  0.76523265     0.13500
H1117       H  0.96781667  0.49972439  0.76292779     0.26800
H1118       H  0.52873788  0.50014524  0.76187748     0.26800
Zn1119     Zn  0.79411326  0.25006846  0.53393284     1.49700
Zn1120     Zn  0.75219085  0.20646278  0.96872688     1.49400
Zn1121     Zn  0.70673814  0.24924833  0.53188830     1.49100
Zn1122     Zn  0.75163441  0.29369634  0.96942985     1.49500
O1123       O  0.75115005  0.24986383  0.50105651    -1.83500
O1124       O  0.82519938  0.20518018  0.52546420    -0.74100
O1125       O  0.70787345  0.17485783  0.97702328    -0.73900
O1126       O  0.71877202  0.24902612  0.58729946    -0.73500
O1127       O  0.79692700  0.17580823  0.97918013    -0.74100
O1128       O  0.77949240  0.25038834  0.58844480    -0.73700
O1129       O  0.67618052  0.20447574  0.52082447    -0.74300
O1130       O  0.70744753  0.32482959  0.97921925    -0.73700
O1131       O  0.75195932  0.22026822  0.91389521    -0.74500
O1132       O  0.67584074  0.29387209  0.52178905    -0.73900
O1133       O  0.75077272  0.28108560  0.91427303    -0.74300
O1134       O  0.79631264  0.32426107  0.97922310    -0.74200
O1135       O  0.82544255  0.29458396  0.52472991    -0.74000
C1136       C  0.82308380  0.17831035  0.50268016     0.77800
C1137       C  0.68000600  0.17750364  0.49835170     0.78300
C1138       C  0.74883689  0.24968761  0.60530273     0.77200
C1139       C  0.67958343  0.32141987  0.50023369     0.77600
C1140       C  0.75091014  0.25073980  0.89664408     0.78700
C1141       C  0.82301444  0.32146281  0.50210586     0.77800
Zn1142     Zn  0.70447371  0.24984854  0.71877007     1.49700
Zn1143     Zn  0.74770803  0.20648305  0.78319926     1.49400
Zn1144     Zn  0.79169977  0.24960154  0.71919206     1.49100
Zn1145     Zn  0.74821974  0.29387696  0.78272767     1.49500
O1146       O  0.74799059  0.24994998  0.75098017    -1.83500
O1147       O  0.67337652  0.20532909  0.72865688    -0.74100
O1148       O  0.79189822  0.17487010  0.77335376    -0.73900
O1149       O  0.77851793  0.24981099  0.66428980    -0.73500
O1150       O  0.70246971  0.17593416  0.77439488    -0.74100
O1151       O  0.71780676  0.24940450  0.66373690    -0.73700
O1152       O  0.82211734  0.20458072  0.72872055    -0.74300
O1153       O  0.79292498  0.32449761  0.77296421    -0.73700
O1154       O  0.74921972  0.22029613  0.83798020    -0.74500
O1155       O  0.82319252  0.29393514  0.72879464    -0.73900
O1156       O  0.74891985  0.28113530  0.83791328    -0.74300
O1157       O  0.70373621  0.32498274  0.77270466    -0.74200
O1158       O  0.67384626  0.29494388  0.72784866    -0.74000
C1159       C  0.67575085  0.17866923  0.75158224     0.77800
C1160       C  0.81900385  0.17757609  0.75108230     0.78300
C1161       C  0.74831236  0.24962548  0.64657436     0.77200
C1162       C  0.82021723  0.32118156  0.75101515     0.77600
C1163       C  0.74963683  0.25076676  0.85538042     0.78700
C1164       C  0.67683098  0.32212783  0.75015120     0.80200
C1165       C  0.59378498  0.40540345  0.74774167    -0.04800
C1166       C  0.61348577  0.39906222  0.78086642    -0.32300
C1167       C  0.64063001  0.37209299  0.78206112     0.37000
C1168       C  0.64843009  0.35101947  0.74967564    -0.05200
C1169       C  0.62859341  0.35762381  0.71646216    -0.32200
C1170       C  0.60165960  0.38482388  0.71529125     0.36900
H1171       H  0.60749337  0.41487301  0.80596036     0.17300
O1172       O  0.65889341  0.36618607  0.81520402    -0.59700
H1173       H  0.63427259  0.34195976  0.69119999     0.17300
O1174       O  0.58297048  0.39097803  0.68245068    -0.59800
H1175       H  0.59630697  0.41112916  0.66984624     0.44300
H1176       H  0.64427785  0.34754259  0.82871919     0.44200
C1177       C  0.90360747  0.40400406  0.74978342    -0.04800
C1178       C  0.88340578  0.39783248  0.78260754    -0.32300
C1179       C  0.85611501  0.37104289  0.78342487     0.37000
C1180       C  0.84897283  0.34967150  0.75108716    -0.05200
C1181       C  0.86952096  0.35587999  0.71828868    -0.32200
C1182       C  0.89654327  0.38293434  0.71746509     0.36900
H1183       H  0.88891127  0.41383427  0.80768263     0.17300
O1184       O  0.83758914  0.36504931  0.81638054    -0.59700
H1185       H  0.86425721  0.34010062  0.69301520     0.17300
O1186       O  0.91527949  0.38930669  0.68472055    -0.59800
H1187       H  0.93656555  0.37250867  0.68551170     0.44300
H1188       H  0.81832345  0.38415161  0.81720899     0.44200
C1189       C  0.90232549  0.09449281  0.74933289    -0.04800
C1190       C  0.88166516  0.10017380  0.78200147    -0.32300
C1191       C  0.85452940  0.12718912  0.78308903     0.37000
C1192       C  0.84752317  0.14877597  0.75095395    -0.05200
C1193       C  0.86844144  0.14293065  0.71828906    -0.32200
C1194       C  0.89551702  0.11590000  0.71729663     0.36900
H1195       H  0.88694340  0.08386290  0.80684761     0.17300
O1196       O  0.83555963  0.13267296  0.81590752    -0.59700
H1197       H  0.86356477  0.15911909  0.69327949     0.17300
O1198       O  0.91545994  0.11077926  0.68503983    -0.59800
H1199       H  0.90291454  0.09072064  0.67135827     0.44300
H1200       H  0.85005786  0.15089765  0.83024516     0.44200
C1201       C  0.64708429  0.15004571  0.75107391    -0.04800
C1202       C  0.62765086  0.14331498  0.71761096    -0.32300
C1203       C  0.60071827  0.11620969  0.71602920     0.37000
C1204       C  0.59274927  0.09541450  0.74816983    -0.05200
C1205       C  0.61183832  0.10205622  0.78166414    -0.32200
C1206       C  0.63893265  0.12905808  0.78330865     0.36900
H1207       H  0.63363804  0.15882587  0.69241756     0.17300
O1208       O  0.58278178  0.10969457  0.68280382    -0.59700
H1209       H  0.60549764  0.08637505  0.80666100     0.17300
O1210       O  0.65612666  0.13573760  0.81692632    -0.59800
H1211       H  0.67515773  0.11650341  0.81904561     0.44300
H1212       H  0.56166293  0.12672630  0.68290538     0.44200
C1213       C  0.65077519  0.34990874  0.49954235    -0.04800
C1214       C  0.62678155  0.35341172  0.53025292    -0.32300
C1215       C  0.59942488  0.38016816  0.53038912     0.37000
C1216       C  0.59543617  0.40363488  0.49937145    -0.05200
C1217       C  0.61899860  0.40010405  0.96861107    -0.32200
C1218       C  0.64643846  0.37345209  0.96839561     0.36900
H1219       H  0.62947090  0.33564688  0.55446277     0.17300
O1220       O  0.57660531  0.38313242  0.56085384    -0.59700
H1221       H  0.61595420  0.41804785  0.94457401     0.17300
O1222       O  0.66859901  0.37054030  0.93740781    -0.59800
H1223       H  0.65589407  0.35325190  0.92029859     0.44300
H1224       H  0.58785224  0.40206476  0.57718363     0.44200
C1225       C  0.85167255  0.35011551  0.50205400    -0.04800
C1226       C  0.85568832  0.37268267  0.97023962    -0.32300
C1227       C  0.88237111  0.40002175  0.96930228     0.37000
C1228       C  0.90551986  0.40521719  0.50040644    -0.05200
C1229       C  0.90154684  0.38308589  0.53225571    -0.32200
C1230       C  0.87501658  0.35556382  0.53323745     0.36900
H1231       H  0.83840053  0.36887552  0.94579858     0.17300
O1232       O  0.88639146  0.42086191  0.93752527    -0.59700
H1233       H  0.91918818  0.38716716  0.55638983     0.17300
O1234       O  0.87140990  0.33503641  0.56527793    -0.59800
H1235       H  0.89050514  0.31583281  0.56336063     0.44300
H1236       H  0.86936068  0.44175298  0.94086312     0.44200
C1237       C  0.85178759  0.14956073  0.50300722    -0.04800
C1238       C  0.85610870  0.12681266  0.97134840    -0.32300
C1239       C  0.88343145  0.10006739  0.97026051     0.37000
C1240       C  0.90690246  0.09546555  0.50111405    -0.05200
C1241       C  0.90269500  0.11778142  0.53294552    -0.32200
C1242       C  0.87524217  0.14452529  0.53421593     0.36900
H1243       H  0.83851114  0.12998531  0.94705988     0.17300
O1244       O  0.88687072  0.07829372  0.93896741    -0.59700
H1245       H  0.92054040  0.11415155  0.55698500     0.17300
O1246       O  0.87142116  0.16522332  0.56623200    -0.59800
H1247       H  0.85387185  0.15157265  0.58215039     0.44300
H1248       H  0.90568664  0.09037648  0.92325273     0.44200
C1249       C  0.65157387  0.14856573  0.49726832    -0.04800
C1250       C  0.62781360  0.14446279  0.52806684    -0.32300
C1251       C  0.60072274  0.11748754  0.52796815     0.37000
C1252       C  0.59683631  0.09414941  0.49674511    -0.05200
C1253       C  0.62039462  0.09796200  0.96592169    -0.32200
C1254       C  0.64769743  0.12481304  0.96599313     0.36900
H1255       H  0.63042568  0.16198597  0.55255157     0.17300
O1256       O  0.57867934  0.11346339  0.55888437    -0.59700
H1257       H  0.61738539  0.08021491  0.94164604     0.17300
O1258       O  0.66941271  0.12849862  0.93478252    -0.59800
H1259       H  0.68886506  0.10978886  0.93767512     0.44300
H1260       H  0.55883555  0.13168619  0.55561217     0.44200
N1261       N  0.55729925  0.49901047  0.99534839    -0.36000
N1262       N  0.00065943  0.94316349  0.99966124    -0.56500
N1263       N  0.94512799  0.00007385  0.99801287    -0.36000
N1264       N  0.00177466  0.55596011  0.99874172    -0.56500
C1265       C  0.57779673  0.96912909  0.00311374     0.27600
C1266       C  0.57845535  0.52873567  0.00169593     0.27600
C1267       C  0.92410903  0.97047829  0.00513695     0.27600
C1268       C  0.92478703  0.53009142  0.00577969     0.27600
C1269       C  0.52999128  0.92121768  0.99464238     0.36200
C1270       C  0.97091078  0.92182908  0.99483109     0.36200
C1271       C  0.53130946  0.57703484  0.99180570     0.36200
C1272       C  0.97220817  0.57769734  0.99415896     0.36200
C1273       C  0.61253547  0.97998912  0.01398983    -0.21300
C1274       C  0.61296065  0.51759174  0.01305577    -0.21300
C1275       C  0.88982490  0.98180925  0.01703865    -0.21300
C1276       C  0.89027002  0.51942699  0.01751328    -0.21300
C1277       C  0.51884250  0.88571773  0.98701538    -0.22300
C1278       C  0.98138989  0.88611055  0.98710606    -0.22300
C1279       C  0.52046547  0.61236215  0.98300121    -0.22300
C1280       C  0.98300535  0.61280344  0.98458365    -0.22300
C1281       C  0.56670113  0.93227429  0.99890719    -0.17700
C1282       C  0.56796706  0.56560504  0.99611375    -0.17700
C1283       C  0.93568680  0.56683180  0.00038596    -0.17700
C1284       C  0.93443457  0.93354526  0.99962813    -0.17700
H1285       H  0.63529918  0.96261618  0.02171392     0.15200
H1286       H  0.63609700  0.53476013  0.01994420     0.15200
H1287       H  0.86679270  0.96474748  0.02446198     0.15200
H1288       H  0.86760164  0.53693518  0.02528782     0.15200
H1289       H  0.53589566  0.86194508  0.98215542     0.13500
H1290       H  0.96389370  0.86268664  0.98238964     0.13500
H1291       H  0.53776408  0.63552469  0.97659997     0.13500
H1292       H  0.96571236  0.63633418  0.97949759     0.13500
H1293       H  0.53180074  0.49901922  0.98259877     0.26800
H1294       H  0.97029326  0.49981752  0.98462148     0.26800
N1295       N  0.94187694  0.99950327  0.25118320    -0.36000
N1296       N  0.49768837  0.55635945  0.24732922    -0.56500
N1297       N  0.55411012  0.00024656  0.24899344    -0.36000
N1298       N  0.49833588  0.94335465  0.24775888    -0.56500
C1299       C  0.92063426  0.52918759  0.24492007     0.27600
C1300       C  0.92103102  0.96952958  0.24504250     0.27600
C1301       C  0.57479873  0.53013283  0.24214220     0.27600
C1302       C  0.57509816  0.97049483  0.24209209     0.27600
C1303       C  0.96801739  0.57789960  0.25222322     0.36200
C1304       C  0.52715858  0.57825895  0.25145064     0.36200
C1305       C  0.96902745  0.92158412  0.25330723     0.36200
C1306       C  0.52816188  0.92200942  0.25243010     0.36200
C1307       C  0.88567031  0.51793883  0.23530603    -0.21300
C1308       C  0.88592415  0.98031682  0.23537156    -0.21300
C1309       C  0.60951815  0.51924291  0.23117188    -0.21300
C1310       C  0.60969910  0.98161071  0.23110321    -0.21300
C1311       C  0.97868845  0.61374975  0.25878834    -0.22300
C1312       C  0.51614577  0.61397203  0.25831174    -0.22300
C1313       C  0.98027267  0.88613742  0.26101697    -0.22300
C1314       C  0.51774734  0.88640773  0.26047616    -0.22300
C1315       C  0.93135471  0.56617355  0.24909858    -0.17700
C1316       C  0.93222222  0.93270979  0.24955367    -0.17700
C1317       C  0.56464869  0.93363235  0.24751155    -0.17700
C1318       C  0.56388511  0.56694855  0.24734750    -0.17700
H1319       H  0.86232647  0.53506070  0.22894710     0.15200
H1320       H  0.86280555  0.96289585  0.22912137     0.15200
H1321       H  0.63244275  0.53660826  0.22415381     0.15200
H1322       H  0.63281389  0.96439698  0.22407242     0.15200
H1323       H  0.96130802  0.63735227  0.26328001     0.13500
H1324       H  0.53329139  0.63777789  0.26229787     0.13500
H1325       H  0.96325562  0.86248551  0.26623121     0.13500
H1326       H  0.53530323  0.86299206  0.26516805     0.13500
H1327       H  0.96778997  0.99972785  0.26293050     0.26800
H1328       H  0.52873206  0.00015901  0.26192048     0.26800
Zn1329     Zn  0.79410590  0.75008795  0.03392166     1.49700
Zn1330     Zn  0.75217266  0.70647339  0.46873770     1.49400
Zn1331     Zn  0.70673273  0.74921166  0.03187794     1.49100
Zn1332     Zn  0.75167136  0.79370298  0.46944150     1.49500
O1333       O  0.75114287  0.74985482  0.00104519    -1.83500
O1334       O  0.82521973  0.70521353  0.02546344    -0.74100
O1335       O  0.70783844  0.67490045  0.47704339    -0.73900
O1336       O  0.71876548  0.74900028  0.08728878    -0.73500
O1337       O  0.79689292  0.67578965  0.47918134    -0.74100
O1338       O  0.77948432  0.75041068  0.08843651    -0.73700
O1339       O  0.67621225  0.70441398  0.02081712    -0.74300
O1340       O  0.70750967  0.82487108  0.47923538    -0.73700
O1341       O  0.75193850  0.72027716  0.41390470    -0.74500
O1342       O  0.67580322  0.79381788  0.02178337    -0.73900
O1343       O  0.75079396  0.78109489  0.41428102    -0.74300
O1344       O  0.79637281  0.82422860  0.47923864    -0.74200
O1345       O  0.82540299  0.79462275  0.02470541    -0.74000
C1346       C  0.82311537  0.67834174  0.00268035     0.77800
C1347       C  0.68004658  0.67744523  0.99834163     0.78300
C1348       C  0.74882845  0.74968870  0.10529372     0.77200
C1349       C  0.67952727  0.82136529  0.00022367     0.77600
C1350       C  0.75090745  0.75074858  0.39665221     0.78700
C1351       C  0.82295736  0.82150521  0.00208759     0.77800
Zn1352     Zn  0.70445864  0.74985179  0.21876802     1.49700
Zn1353     Zn  0.74769185  0.70649031  0.28320337     1.49400
Zn1354     Zn  0.79168144  0.74960089  0.21918465     1.49100
Zn1355     Zn  0.74821232  0.79388018  0.28273021     1.49500
O1356       O  0.74797462  0.74995377  0.25097941    -1.83500
O1357       O  0.67337240  0.70532193  0.22865057    -0.74100
O1358       O  0.79187883  0.67488046  0.27334815    -0.73900
O1359       O  0.77850515  0.74981816  0.16428280    -0.73500
O1360       O  0.70245609  0.67593741  0.27440294    -0.74100
O1361       O  0.71779445  0.74941074  0.16372918    -0.73700
O1362       O  0.82209029  0.70457661  0.22869891    -0.74300
O1363       O  0.79292658  0.82449205  0.27296344    -0.73700
O1364       O  0.74920906  0.72030305  0.33798740    -0.74500
O1365       O  0.82318622  0.79392211  0.22879321    -0.73900
O1366       O  0.74891350  0.78114165  0.33791849    -0.74300
O1367       O  0.70372721  0.82498855  0.27271252    -0.74200
O1368       O  0.67382492  0.79494693  0.22786583    -0.74000
C1369       C  0.67574336  0.67866652  0.25158204     0.77800
C1370       C  0.81897854  0.67757861  0.25106816     0.78300
C1371       C  0.74830071  0.74963131  0.14656638     0.77200
C1372       C  0.82021806  0.82116910  0.25101364     0.77600
C1373       C  0.74962947  0.75077407  0.35538736     0.78700
C1374       C  0.67681504  0.82213232  0.25016766     0.80200
C1375       C  0.59378055  0.90542579  0.24776038    -0.04800
C1376       C  0.61348214  0.89908277  0.28088522    -0.32300
C1377       C  0.64062589  0.87211114  0.28207932     0.37000
C1378       C  0.64841592  0.85102810  0.24969678    -0.05200
C1379       C  0.62858054  0.85763693  0.21648395    -0.32200
C1380       C  0.60165830  0.88484890  0.21530974     0.36900
H1381       H  0.60749378  0.91489672  0.30597816     0.17300
O1382       O  0.65890330  0.86621663  0.31521652    -0.59700
H1383       H  0.63425758  0.84197278  0.19122143     0.17300
O1384       O  0.58298919  0.89102573  0.18246212    -0.59800
H1385       H  0.59644260  0.91105978  0.16979230     0.44300
H1386       H  0.64430624  0.84756134  0.32873543     0.44200
C1387       C  0.90359395  0.90400753  0.24974654    -0.04800
C1388       C  0.88340230  0.89783504  0.28257717    -0.32300
C1389       C  0.85612186  0.87103537  0.28340877     0.37000
C1390       C  0.84897742  0.84965575  0.25107783    -0.05200
C1391       C  0.86951956  0.85586009  0.21827413    -0.32200
C1392       C  0.89653244  0.88292412  0.21743639     0.36900
H1393       H  0.88890917  0.91384315  0.30764769     0.17300
O1394       O  0.83760865  0.86504033  0.31637168    -0.59700
H1395       H  0.86425607  0.84007211  0.19300626     0.17300
O1396       O  0.91526114  0.88929170  0.18468628    -0.59800
H1397       H  0.93655094  0.87249842  0.18547769     0.44300
H1398       H  0.81835025  0.88414941  0.31721472     0.44200
C1399       C  0.90230343  0.59450442  0.24935494    -0.04800
C1400       C  0.88165571  0.60021136  0.28202652    -0.32300
C1401       C  0.85452041  0.62722608  0.28310050     0.37000
C1402       C  0.84749732  0.64878068  0.25094722    -0.05200
C1403       C  0.86840516  0.64291280  0.21827958    -0.32200
C1404       C  0.89548658  0.61588762  0.21730310     0.36900
H1405       H  0.88694520  0.58392303  0.30688572     0.17300
O1406       O  0.83557120  0.63274558  0.31592535    -0.59700
H1407       H  0.86351892  0.65908200  0.19325868     0.17300
O1408       O  0.91543096  0.61075306  0.18504929    -0.59800
H1409       H  0.90290974  0.59066157  0.17139543     0.44300
H1410       H  0.85006346  0.65100767  0.33021907     0.44200
C1411       C  0.64707611  0.65004484  0.25107600    -0.04800
C1412       C  0.62766677  0.64328775  0.21760390    -0.32300
C1413       C  0.60072201  0.61619406  0.21603033     0.37000
C1414       C  0.59272041  0.59543543  0.24818735    -0.05200
C1415       C  0.61178649  0.60210280  0.28168967    -0.32200
C1416       C  0.63889151  0.62909403  0.28332681     0.36900
H1417       H  0.63367990  0.65877130  0.19239922     0.17300
O1418       O  0.58280438  0.60965550  0.18279900    -0.59700
H1419       H  0.60542072  0.58644892  0.30669788     0.17300
O1420       O  0.65606072  0.63580411  0.31695175    -0.59800
H1421       H  0.67503038  0.61651758  0.31914966     0.44300
H1422       H  0.56170119  0.62670692  0.18286260     0.44200
C1423       C  0.65071042  0.84984504  0.99954005    -0.04800
C1424       C  0.62676304  0.85338455  0.03028474    -0.32300
C1425       C  0.59941379  0.88014985  0.03043566     0.37000
C1426       C  0.59538868  0.90358862  0.99940099    -0.05200
C1427       C  0.61909429  0.90018902  0.46861568    -0.32200
C1428       C  0.64654547  0.87354921  0.46841770     0.36900
H1429       H  0.62948615  0.83564451  0.05450989     0.17300
O1430       O  0.57663786  0.88315142  0.06093112    -0.59700
H1431       H  0.61608058  0.91815624  0.44459308     0.17300
O1432       O  0.66875772  0.87068432  0.43746489    -0.59800
H1433       H  0.65618988  0.85324982  0.42040480     0.44300
H1434       H  0.58794098  0.90205936  0.07724942     0.44200
C1435       C  0.85160287  0.85016976  0.00204154    -0.04800
C1436       C  0.85573581  0.87264564  0.47026200    -0.32300
C1437       C  0.88241012  0.89999184  0.46932307     0.37000
C1438       C  0.90546500  0.90525575  0.00039718    -0.05200
C1439       C  0.90145969  0.88315035  0.03226051    -0.32200
C1440       C  0.87492135  0.85563707  0.03324116     0.36900
H1441       H  0.83843286  0.86885071  0.44583041     0.17300
O1442       O  0.88640525  0.92084917  0.43755472    -0.59700
H1443       H  0.91908363  0.88724349  0.05640599     0.17300
O1444       O  0.87127993  0.83513697  0.06529607    -0.59800
H1445       H  0.89039888  0.81595198  0.06343515     0.44300
H1446       H  0.86936391  0.94172892  0.44091051     0.44200
C1447       C  0.85182753  0.64960242  0.00300902    -0.04800
C1448       C  0.85601671  0.62672173  0.47137586    -0.32300
C1449       C  0.88333798  0.59997404  0.47028374     0.37000
C1450       C  0.90694123  0.59550772  0.00112651    -0.05200
C1451       C  0.90268443  0.61777716  0.03298588    -0.32200
C1452       C  0.87523258  0.64452338  0.03424902     0.36900
H1453       H  0.83837970  0.62985699  0.44711254     0.17300
O1454       O  0.88672415  0.57815076  0.43902094    -0.59700
H1455       H  0.92048843  0.61410812  0.05705149     0.17300
O1456       O  0.87135946  0.66517721  0.06628865    -0.59800
H1457       H  0.85380696  0.65148980  0.08216973     0.44300
H1458       H  0.90551497  0.59020688  0.42325293     0.44200
C1459       C  0.65162819  0.64849527  0.99726844    -0.04800
C1460       C  0.62793895  0.64432827  0.02811495    -0.32300
C1461       C  0.60084454  0.61735773  0.02801997     0.37000
C1462       C  0.59688305  0.59408910  0.99675358    -0.05200
C1463       C  0.62041158  0.59796663  0.46595794    -0.32200
C1464       C  0.64770933  0.62482126  0.46603347     0.36900
H1465       H  0.63060710  0.66180144  0.05263094     0.17300
O1466       O  0.57886576  0.61327476  0.05897630    -0.59700
H1467       H  0.61746004  0.58016792  0.44171460     0.17300
O1468       O  0.66949292  0.62844048  0.43486500    -0.59800
H1469       H  0.68893724  0.60973531  0.43784335     0.44300
H1470       H  0.55899742  0.63148146  0.05576704     0.44200
N1471       N  0.55730526  0.49904521  0.49533559    -0.36000
N1472       N  0.00069350  0.94317107  0.49964710    -0.56500
N1473       N  0.94513405  0.00005180  0.49800661    -0.36000
N1474       N  0.00175168  0.55596526  0.49873245    -0.56500
C1475       C  0.57782241  0.96917183  0.50307724     0.27600
C1476       C  0.57844963  0.52878023  0.50167602     0.27600
C1477       C  0.92414085  0.97044688  0.50516900     0.27600
C1478       C  0.92478847  0.53005985  0.50579861     0.27600
C1479       C  0.53003419  0.92124414  0.49459565     0.36200
C1480       C  0.97095375  0.92182777  0.49479996     0.36200
C1481       C  0.53127510  0.57704887  0.49177407     0.36200
C1482       C  0.97217345  0.57767867  0.49411203     0.36200
C1483       C  0.61256366  0.98004692  0.51392984    -0.21300
C1484       C  0.61296880  0.51765039  0.51300684    -0.21300
C1485       C  0.88986936  0.98176160  0.51712522    -0.21300
C1486       C  0.89029557  0.51938053  0.51759188    -0.21300
C1487       C  0.51889945  0.88574777  0.48692758    -0.22300
C1488       C  0.98144644  0.88612332  0.48702743    -0.22300
C1489       C  0.52041171  0.61235670  0.48291317    -0.22300
C1490       C  0.98295073  0.61277722  0.48448505    -0.22300
C1491       C  0.56674024  0.93231264  0.49886706    -0.17700
C1492       C  0.56793847  0.56564552  0.49610330    -0.17700
C1493       C  0.93566057  0.56680203  0.50036674    -0.17700
C1494       C  0.93447584  0.93352076  0.49963440    -0.17700
H1495       H  0.63534313  0.96268404  0.52162854     0.15200
H1496       H  0.63610284  0.53482804  0.51987891     0.15200
H1497       H  0.86685753  0.96468816  0.52458690     0.15200
H1498       H  0.86763044  0.53687965  0.52539817     0.15200
H1499       H  0.53596251  0.86198902  0.48203284     0.13500
H1500       H  0.96395897  0.86269731  0.48228728     0.13500
H1501       H  0.53769802  0.63551952  0.47647805     0.13500
H1502       H  0.96564395  0.63628964  0.47935987     0.13500
H1503       H  0.53179725  0.49904365  0.48260710     0.26800
H1504       H  0.97027717  0.49980685  0.48456838     0.26800
N1505       N  0.94190307  0.99949506  0.75118148    -0.36000
N1506       N  0.49771325  0.55634490  0.74728637    -0.56500
N1507       N  0.55412456  0.00022789  0.74896953    -0.36000
N1508       N  0.49834801  0.94334041  0.74777555    -0.56500
C1509       C  0.92066090  0.52917657  0.74488952     0.27600
C1510       C  0.92105256  0.96952020  0.74504990     0.27600
C1511       C  0.57482242  0.53011072  0.74211953     0.27600
C1512       C  0.57511093  0.97047264  0.74206638     0.27600
C1513       C  0.96804325  0.57788657  0.75218380     0.36200
C1514       C  0.52718532  0.57824053  0.75141870     0.36200
C1515       C  0.96904038  0.92157827  0.75335940     0.36200
C1516       C  0.52817365  0.92199594  0.75244661     0.36200
C1517       C  0.88570047  0.51792571  0.73526461    -0.21300
C1518       C  0.88595098  0.98030409  0.73535417    -0.21300
C1519       C  0.60954085  0.51921569  0.73115046    -0.21300
C1520       C  0.60971459  0.98158310  0.73107811    -0.21300
C1521       C  0.97871678  0.61373389  0.75875821    -0.22300
C1522       C  0.51617417  0.61395268  0.75828737    -0.22300
C1523       C  0.98028489  0.88613705  0.76109597    -0.22300
C1524       C  0.51775966  0.88640219  0.76053117    -0.22300
C1525       C  0.93137955  0.56616261  0.74906326    -0.17700
C1526       C  0.93223737  0.93270355  0.74959531    -0.17700
C1527       C  0.56465735  0.93361232  0.74749529    -0.17700
C1528       C  0.56391246  0.56692756  0.74732446    -0.17700
H1529       H  0.86236059  0.53504628  0.72888571     0.15200
H1530       H  0.86283300  0.96288127  0.72910588     0.15200
H1531       H  0.63246910  0.53657798  0.72413575     0.15200
H1532       H  0.63282761  0.96436565  0.72404977     0.15200
H1533       H  0.96133797  0.63733618  0.76325743     0.13500
H1534       H  0.53332115  0.63775557  0.76228611     0.13500
H1535       H  0.96326698  0.86249177  0.76633862     0.13500
H1536       H  0.53531579  0.86298847  0.76523265     0.13500
H1537       H  0.96781668  0.99972450  0.76292778     0.26800
H1538       H  0.52873783  0.00014534  0.76187746     0.26800
Zn1539     Zn  0.79411329  0.75006844  0.53393284     1.49700
Zn1540     Zn  0.75219085  0.70646276  0.96872688     1.49400
Zn1541     Zn  0.70673815  0.74924832  0.53188831     1.49100
Zn1542     Zn  0.75163441  0.79369632  0.96942984     1.49500
O1543       O  0.75115005  0.74986382  0.50105656    -1.83500
O1544       O  0.82519938  0.70518016  0.52546418    -0.74100
O1545       O  0.70787347  0.67485782  0.97702331    -0.73900
O1546       O  0.71877216  0.74902609  0.58729944    -0.73500
O1547       O  0.79692700  0.67580821  0.97918013    -0.74100
O1548       O  0.77949253  0.75038831  0.58844483    -0.73700
O1549       O  0.67618052  0.70447573  0.52082450    -0.74300
O1550       O  0.70744754  0.82482955  0.97921924    -0.73700
O1551       O  0.75195932  0.72026819  0.91389521    -0.74500
O1552       O  0.67584075  0.79387211  0.52178905    -0.73900
O1553       O  0.75077272  0.78108557  0.91427303    -0.74300
O1554       O  0.79631265  0.82426107  0.97922306    -0.74200
O1555       O  0.82544254  0.79458399  0.52472989    -0.74000
C1556       C  0.82308379  0.67831033  0.50268014     0.77800
C1557       C  0.68000601  0.67750362  0.49835176     0.78300
C1558       C  0.74883699  0.74968758  0.60530273     0.77200
C1559       C  0.67958345  0.82141988  0.50023370     0.77600
C1560       C  0.75091014  0.75073977  0.89664408     0.78700
C1561       C  0.82301443  0.82146282  0.50210585     0.77800
Zn1562     Zn  0.70447371  0.74984851  0.71877006     1.49700
Zn1563     Zn  0.74770803  0.70648302  0.78319926     1.49400
Zn1564     Zn  0.79169977  0.74960151  0.71919208     1.49100
Zn1565     Zn  0.74821972  0.79387695  0.78272766     1.49500
O1566       O  0.74799059  0.74994995  0.75098017    -1.83500
O1567       O  0.67337652  0.70532906  0.72865688    -0.74100
O1568       O  0.79189822  0.67487007  0.77335377    -0.73900
O1569       O  0.77851795  0.74981097  0.66428983    -0.73500
O1570       O  0.70246971  0.67593413  0.77439488    -0.74100
O1571       O  0.71780679  0.74940447  0.66373686    -0.73700
O1572       O  0.82211734  0.70458069  0.72872055    -0.74300
O1573       O  0.79292487  0.82449773  0.77296412    -0.73700
O1574       O  0.74921972  0.72029610  0.83798019    -0.74500
O1575       O  0.82319248  0.79393512  0.72879472    -0.73900
O1576       O  0.74891985  0.78113527  0.83791328    -0.74300
O1577       O  0.70373618  0.82498271  0.77270466    -0.74200
O1578       O  0.67384625  0.79494387  0.72784865    -0.74000
C1579       C  0.67575085  0.67866920  0.75158224     0.77800
C1580       C  0.81900385  0.67757606  0.75108232     0.78300
C1581       C  0.74831242  0.74962545  0.64657436     0.77200
C1582       C  0.82021715  0.82118160  0.75101515     0.77600
C1583       C  0.74963683  0.75076674  0.85538042     0.78700
C1584       C  0.67683096  0.82212782  0.75015119     0.80200
C1585       C  0.59378498  0.90540349  0.74774170    -0.04800
C1586       C  0.61348576  0.89906221  0.78086645    -0.32300
C1587       C  0.64062999  0.87209298  0.78206112     0.37000
C1588       C  0.64843009  0.85101948  0.74967561    -0.05200
C1589       C  0.62859345  0.85762391  0.71646209    -0.32200
C1590       C  0.60165965  0.88482402  0.71529123     0.36900
H1591       H  0.60749335  0.91487297  0.80596041     0.17300
O1592       O  0.65889339  0.86618602  0.81520402    -0.59700
H1593       H  0.63427262  0.84195992  0.69119991     0.17300
O1594       O  0.58297051  0.89097826  0.68245069    -0.59800
H1595       H  0.59630718  0.91112918  0.66984610     0.44300
H1596       H  0.64427775  0.84754263  0.82871925     0.44200
C1597       C  0.90360745  0.90400404  0.74978341    -0.04800
C1598       C  0.88340579  0.89783246  0.78260755    -0.32300
C1599       C  0.85611501  0.87104286  0.78342489     0.37000
C1600       C  0.84897281  0.84967148  0.75108718    -0.05200
C1601       C  0.86952094  0.85587995  0.71828871    -0.32200
C1602       C  0.89654323  0.88293430  0.71746510     0.36900
H1603       H  0.88891128  0.91383425  0.80768263     0.17300
O1604       O  0.83758914  0.86504928  0.81638055    -0.59700
H1605       H  0.86425716  0.84010059  0.69301523     0.17300
O1606       O  0.91527932  0.88930670  0.68472050    -0.59800
H1607       H  0.93656548  0.87250876  0.68551162     0.44300
H1608       H  0.81832346  0.88415159  0.81720900     0.44200
C1609       C  0.90232549  0.59449278  0.74933290    -0.04800
C1610       C  0.88166516  0.60017377  0.78200149    -0.32300
C1611       C  0.85452940  0.62718910  0.78308910     0.37000
C1612       C  0.84752316  0.64877594  0.75095399    -0.05200
C1613       C  0.86844143  0.64293062  0.71828909    -0.32200
C1614       C  0.89551701  0.61589998  0.71729665     0.36900
H1615       H  0.88694343  0.58386286  0.80684762     0.17300
O1616       O  0.83555968  0.63267294  0.81590762    -0.59700
H1617       H  0.86356476  0.65911905  0.69327952     0.17300
O1618       O  0.91545994  0.61077923  0.68503983    -0.59800
H1619       H  0.90291454  0.59072062  0.67135827     0.44300
H1620       H  0.85005781  0.65089783  0.83024512     0.44200
C1621       C  0.64708429  0.65004568  0.75107391    -0.04800
C1622       C  0.62765087  0.64331495  0.71761095    -0.32300
C1623       C  0.60071827  0.61620967  0.71602919     0.37000
C1624       C  0.59274926  0.59541448  0.74816980    -0.05200
C1625       C  0.61183834  0.60205621  0.78166409    -0.32200
C1626       C  0.63893266  0.62905806  0.78330864     0.36900
H1627       H  0.63363804  0.65882585  0.69241756     0.17300
O1628       O  0.58278177  0.60969455  0.68280382    -0.59700
H1629       H  0.60549767  0.58637503  0.80666098     0.17300
O1630       O  0.65612666  0.63573757  0.81692632    -0.59800
H1631       H  0.67515773  0.61650338  0.81904561     0.44300
H1632       H  0.56166301  0.62672642  0.68290532     0.44200
C1633       C  0.65077521  0.84990875  0.49954235    -0.04800
C1634       C  0.62678156  0.85341170  0.53025291    -0.32300
C1635       C  0.59942488  0.88016813  0.53038911     0.37000
C1636       C  0.59543618  0.90363486  0.49937143    -0.05200
C1637       C  0.61899865  0.90010402  0.96861107    -0.32200
C1638       C  0.64643853  0.87345211  0.96839564     0.36900
H1639       H  0.62947090  0.83564686  0.55446276     0.17300
O1640       O  0.57660530  0.88313237  0.56085383    -0.59700
H1641       H  0.61595425  0.91804779  0.94457398     0.17300
O1642       O  0.66859906  0.87054028  0.93740782    -0.59800
H1643       H  0.65589400  0.85325205  0.92029853     0.44300
H1644       H  0.58785214  0.90206481  0.57718355     0.44200
C1645       C  0.85167255  0.85011552  0.50205395    -0.04800
C1646       C  0.85568833  0.87268270  0.97023962    -0.32300
C1647       C  0.88237113  0.90002177  0.96930228     0.37000
C1648       C  0.90551987  0.90521718  0.50040643    -0.05200
C1649       C  0.90154686  0.88308586  0.53225567    -0.32200
C1650       C  0.87501661  0.85556377  0.53323739     0.36900
H1651       H  0.83840059  0.86887554  0.94579854     0.17300
O1652       O  0.88639147  0.92086190  0.93752526    -0.59700
H1653       H  0.91918817  0.88716715  0.55638981     0.17300
O1654       O  0.87140989  0.83503640  0.56527788    -0.59800
H1655       H  0.89050521  0.81583288  0.56336067     0.44300
H1656       H  0.86936068  0.94175297  0.94086309     0.44200
C1657       C  0.85178757  0.64956073  0.50300718    -0.04800
C1658       C  0.85610869  0.62681261  0.97134836    -0.32300
C1659       C  0.88343144  0.60006732  0.97026048     0.37000
C1660       C  0.90690247  0.59546559  0.50111405    -0.05200
C1661       C  0.90269505  0.61778152  0.53294546    -0.32200
C1662       C  0.87524218  0.64452539  0.53421588     0.36900
H1663       H  0.83851112  0.62998525  0.94705984     0.17300
O1664       O  0.88687067  0.57829352  0.93896745    -0.59700
H1665       H  0.92054051  0.61415172  0.55698491     0.17300
O1666       O  0.87142118  0.66522348  0.56623189    -0.59800
H1667       H  0.85387187  0.65157284  0.58215031     0.44300
H1668       H  0.90568662  0.59037616  0.92325273     0.44200
C1669       C  0.65157392  0.64856569  0.49726842    -0.04800
C1670       C  0.62781359  0.64446281  0.52806692    -0.32300
C1671       C  0.60072274  0.61748753  0.52796817     0.37000
C1672       C  0.59683634  0.59414939  0.49674510    -0.05200
C1673       C  0.62039465  0.59796198  0.96592173    -0.32200
C1674       C  0.64769744  0.62481304  0.96599315     0.36900
H1675       H  0.63042557  0.66198600  0.55255163     0.17300
O1676       O  0.57867933  0.61346335  0.55888437    -0.59700
H1677       H  0.61738543  0.58021484  0.94164610     0.17300
O1678       O  0.66941272  0.62849860  0.93478252    -0.59800
H1679       H  0.68886506  0.60978884  0.93767512     0.44300
H1680       H  0.55883555  0.63168616  0.55561217     0.44200
loop_ 
_geom_bond_atom_site_label_1 
_geom_bond_atom_site_label_2 
_geom_bond_distance 
_geom_bond_site_symmetry_2 
_ccdc_geom_bond_type 
N1            C6   1.353   1_566  A
N1          C425   1.353   1_556  A
N1           H33   1.037       .  S
N2           C10   1.351       .  A
N2          C849   1.351       .  A
N3            C7   1.353   1_556  A
N3          C428   1.353   1_556  A
N3          H454   1.037       .  S
N4           C12   1.351       .  A
N4          C851   1.351       .  A
C5          N421   1.353   1_554  A
C5           C13   1.387       .  A
C5           C21   1.415   1_554  A
C6           C22   1.415   1_554  A
C6           C14   1.387       .  A
C7           C15   1.387       .  A
C7           C24   1.414   1_554  A
C8          N423   1.353   1_554  A
C8           C23   1.414       .  A
C8           C16   1.387       .  A
C9          N842   1.351       .  A
C9           C21   1.412       .  A
C9           C17   1.386       .  A
C10          C24   1.412       .  A
C10          C18   1.386       .  A
C11         N844   1.351       .  A
C11          C19   1.386       .  A
C11          C22   1.413       .  A
C12          C20   1.386       .  A
C12          C23   1.413   1_556  A
C13         C434   1.374       .  A
C13          H25   1.082       .  S
C14         C433   1.374   1_545  A
C14          H26   1.082       .  S
C15         C436   1.375       .  A
C15          H27   1.082       .  S
C16         C435   1.375   1_545  A
C16          H28   1.082       .  S
C17         C858   1.371   1_455  A
C17          H29   1.082       .  S
C18         C857   1.371       .  A
C18          H30   1.082       .  S
C19         C860   1.372   1_455  A
C19          H31   1.082       .  S
C20         C859   1.372       .  A
C20          H32   1.082       .  S
C21         C166   1.483       .  S
C22         C202   1.486       .  S
C23         C190   1.484       .  S
C24         C178   1.482   1_556  S
H34         N423   1.037   1_565  S
N35          C40   1.353       .  A
N35         C459   1.352       .  A
N35          H67   1.036       .  S
N36          C44   1.352   1_655  A
N36         C883   1.351       .  A
N37          C42   1.352       .  A
N37         C461   1.352       .  A
N37          H68   1.036       .  S
N38          C46   1.351   1_655  A
N38         C885   1.351       .  A
C39         N455   1.352   1_545  A
C39          C47   1.387       .  A
C39          C55   1.415       .  A
C40          C56   1.415       .  A
C40          C48   1.387       .  A
C41         N457   1.352       .  A
C41          C49   1.387       .  A
C41          C58   1.414       .  A
C42          C57   1.414       .  A
C42          C50   1.387       .  A
C43         N876   1.351       .  A
C43          C55   1.414       .  A
C43          C51   1.387       .  A
C44          C58   1.413       .  A
C44          C52   1.386       .  A
C45         N878   1.351       .  A
C45          C53   1.386       .  A
C45          C56   1.413       .  A
C46          C54   1.387       .  A
C46          C57   1.413       .  A
C47         C468   1.375   1_545  A
C47          H59   1.082       .  S
C48         C467   1.375       .  A
C48          H60   1.082       .  S
C49         C470   1.375   1_545  A
C49          H61   1.082       .  S
C50         C469   1.375       .  A
C50          H62   1.082       .  S
C51         C892   1.371       .  A
C51          H63   1.082       .  S
C52         C891   1.371   1_455  A
C52          H64   1.082       .  S
C53         C894   1.372       .  A
C53          H65   1.082       .  S
C54         C893   1.372   1_455  A
C54          H66   1.082       .  S
C55         C139   1.483       .  S
C56         C127   1.484       .  S
C57         C115   1.482       .  S
C58         C154   1.484       .  S
Zn69         O73   1.959       .  S
Zn69         O74   2.017       .  S
Zn69         O78   2.010       .  S
Zn69         O85   2.019       .  S
Zn70        O283   1.956       .  S
Zn70         O75   2.015       .  S
Zn70         O77   2.018       .  S
Zn70         O81   2.014       .  S
Zn71         O73   1.961       .  S
Zn71         O76   2.018       .  S
Zn71         O79   2.021       .  S
Zn71         O82   2.016       .  S
Zn72        O283   1.959       .  S
Zn72         O80   2.006       .  S
Zn72         O83   2.013       .  S
Zn72         O84   2.012       .  S
O73        Zn280   1.956   1_554  S
O73        Zn282   1.959   1_554  S
O74          C86   1.273       .  A
O75         C297   1.273       .  A
O76          C88   1.273       .  A
O77         C296   1.275       .  A
O78          C88   1.273       .  A
O79          C87   1.274   1_554  A
O80         C299   1.272       .  A
O81          C90   1.273       .  A
O82          C89   1.274       .  A
O83          C90   1.272       .  A
O84         C301   1.273       .  A
O85          C91   1.274       .  A
C86         C187   1.485       .  S
C86         O287   1.275   1_554  A
C87         C199   1.485       .  S
C87         O285   1.273       .  A
C88         C111   1.467       .  S
C89         C163   1.481   1_554  S
C89         O290   1.272   1_554  A
C90         C113   1.467       .  S
C91         C175   1.483       .  S
C91         O294   1.273   1_554  A
Zn92         O96   1.961       .  S
Zn92         O97   2.018       .  S
Zn92        O101   2.016       .  S
Zn92        O108   2.017       .  S
Zn93         O96   1.960       .  S
Zn93         O98   2.016       .  S
Zn93        O100   2.022       .  S
Zn93        O104   2.011       .  S
Zn94         O96   1.959       .  S
Zn94         O99   2.010       .  S
Zn94        O102   2.014       .  S
Zn94        O105   2.018       .  S
Zn95         O96   1.960       .  S
Zn95        O103   2.015       .  S
Zn95        O106   2.017       .  S
Zn95        O107   2.016       .  S
O97         C109   1.274       .  A
O98         C110   1.274       .  A
O99         C111   1.272       .  A
O100        C109   1.274       .  A
O101        C111   1.273       .  A
O102        C110   1.274       .  A
O103        C112   1.273       .  A
O104        C113   1.272       .  A
O105        C112   1.274       .  A
O106        C113   1.273       .  A
O107        C114   1.274       .  A
O108        C114   1.274       .  A
C109        C151   1.483       .  S
C110        C142   1.481       .  S
C112        C130   1.482       .  S
C114        C118   1.481       .  S
C115        C116   1.400       .  A
C115        C120   1.405       .  A
C116        C117   1.399       .  A
C116        H121   1.084       .  S
C117        C118   1.412       .  A
C117        O122   1.372       .  S
C118        C119   1.407       .  A
C119        C120   1.399       .  A
C119        H123   1.083       .  S
C120        O124   1.372       .  S
O122        H126   0.992       .  S
O124        H125   0.992       .  S
C127        C128   1.400       .  A
C127        C132   1.405       .  A
C128        C129   1.400       .  A
C128        H133   1.084       .  S
C129        C130   1.412       .  A
C129        O134   1.372       .  S
C130        C131   1.406       .  A
C131        C132   1.400       .  A
C131        H135   1.084       .  S
C132        O136   1.372       .  S
O134        H138   0.992       .  S
O136        H137   0.992       .  S
C139        C140   1.401       .  A
C139        C144   1.405       .  A
C140        C141   1.400       .  A
C140        H145   1.084       .  S
C141        C142   1.413       .  A
C141        O146   1.372       .  S
C142        C143   1.407       .  A
C143        C144   1.398       .  A
C143        H147   1.083       .  S
C144        O148   1.372       .  S
O146        H150   0.992       .  S
O148        H149   0.992       .  S
C151        C152   1.407       .  A
C151        C156   1.412       .  A
C152        C153   1.400       .  A
C152        H157   1.083       .  S
C153        C154   1.404       .  A
C153        O158   1.371       .  S
C154        C155   1.401       .  A
C155        C156   1.401       .  A
C155        H159   1.084       .  S
C156        O160   1.372       .  S
O158        H162   0.992       .  S
O160        H161   0.992       .  S
C163        C164   1.407   1_556  A
C163        C378   1.413       .  A
C164        C165   1.398       .  A
C164        H169   1.083       .  S
C165        C166   1.406   1_554  A
C165        O170   1.372       .  S
C166        C377   1.400       .  A
C167        C168   1.398       .  A
C167        C376   1.400       .  A
C167        H171   1.084       .  S
C168        C373   1.413       .  A
C168        O172   1.372       .  S
O170        H174   0.992       .  S
O172        H173   0.992       .  S
C175        C180   1.413       .  A
C175        C386   1.408   1_554  A
C176        C177   1.399       .  A
C176        C385   1.408       .  A
C176        H181   1.083       .  S
C177        C388   1.404       .  A
C177        O182   1.372       .  S
C178        C179   1.400       .  A
C178        C387   1.404   1_554  A
C179        C180   1.400       .  A
C179        H183   1.084       .  S
C180        O184   1.372       .  S
O182        H186   0.992       .  S
O184        H185   0.992       .  S
C187        C192   1.415       .  A
C187        C398   1.407   1_554  A
C188        C189   1.398       .  A
C188        C397   1.407       .  A
C188        H193   1.083       .  S
C189        C400   1.404       .  A
C189        O194   1.371       .  S
C190        C191   1.401       .  A
C190        C399   1.404   1_554  A
C191        C192   1.401       .  A
C191        H195   1.084       .  S
C192        O196   1.372       .  S
O194        H198   0.992       .  S
O196        H197   0.992       .  S
C199        C200   1.407   1_556  A
C199        C414   1.414       .  A
C200        C201   1.399       .  A
C200        H205   1.083       .  S
C201        C202   1.405   1_554  A
C201        O206   1.372       .  S
C202        C413   1.401       .  A
C203        C204   1.402       .  A
C203        C412   1.401       .  A
C203        H207   1.084       .  S
C204        C409   1.414       .  A
C204        O208   1.372       .  S
O206        H210   0.992       .  S
O208        H209   0.992       .  S
N211        C216   1.353   1_565  A
N211        C635   1.353       .  A
N211        H243   1.037       .  S
N212       C1059   1.351       .  A
N212        C220   1.351       .  A
N213        C638   1.353       .  A
N213        C217   1.353       .  A
N213        H664   1.037       .  S
N214       C1061   1.351       .  A
N214        C222   1.351       .  A
C215        N631   1.353       .  A
C215        C223   1.387       .  A
C215        C231   1.415       .  A
C216        C232   1.415       .  A
C216        C224   1.387       .  A
C217        C225   1.387       .  A
C217        C234   1.414       .  A
C218        N633   1.353       .  A
C218        C233   1.414       .  A
C218        C226   1.387       .  A
C219       N1052   1.351       .  A
C219        C231   1.412       .  A
C219        C227   1.386       .  A
C220        C234   1.412       .  A
C220        C228   1.386       .  A
C221       N1054   1.351       .  A
C221        C229   1.386       .  A
C221        C232   1.413       .  A
C222        C230   1.386       .  A
C222        C233   1.413       .  A
C223        C644   1.374       .  A
C223        H235   1.082       .  S
C224        C643   1.374   1_545  A
C224        H236   1.082       .  S
C225        C646   1.375       .  A
C225        H237   1.082       .  S
C226        C645   1.375   1_545  A
C226        H238   1.082       .  S
C227       C1068   1.371   1_455  A
C227        H239   1.082       .  S
C228       C1067   1.371       .  A
C228        H240   1.082       .  S
C229       C1070   1.372   1_455  A
C229        H241   1.082       .  S
C230       C1069   1.372       .  A
C230        H242   1.082       .  S
C231        C376   1.483       .  S
C232        C412   1.486       .  S
C233        C400   1.484       .  S
C234        C388   1.482       .  S
H244        N633   1.037   1_565  S
N245        C250   1.353       .  A
N245        C669   1.352       .  A
N245        H277   1.036       .  S
N246       C1093   1.351       .  A
N246        C254   1.352   1_655  A
N247        C252   1.352       .  A
N247        C671   1.353       .  A
N247        H278   1.036       .  S
N248       C1095   1.351       .  A
N248        C256   1.351   1_655  A
C249        N665   1.352   1_545  A
C249        C257   1.387       .  A
C249        C265   1.415       .  A
C250        C266   1.415       .  A
C250        C258   1.387       .  A
C251        N667   1.353       .  A
C251        C259   1.387       .  A
C251        C268   1.414       .  A
C252        C267   1.414       .  A
C252        C260   1.387       .  A
C253       N1086   1.351       .  A
C253        C265   1.414       .  A
C253        C261   1.387       .  A
C254        C268   1.413       .  A
C254        C262   1.386       .  A
C255       N1088   1.351       .  A
C255        C263   1.386       .  A
C255        C266   1.413       .  A
C256        C264   1.387       .  A
C256        C267   1.413       .  A
C257        C678   1.375   1_545  A
C257        H269   1.082       .  S
C258        C677   1.375       .  A
C258        H270   1.082       .  S
C259        C680   1.375   1_545  A
C259        H271   1.082       .  S
C260        C679   1.375       .  A
C260        H272   1.082       .  S
C261       C1102   1.371       .  A
C261        H273   1.082       .  S
C262       C1101   1.371   1_455  A
C262        H274   1.082       .  S
C263       C1104   1.372       .  A
C263        H275   1.082       .  S
C264       C1103   1.372   1_455  A
C264        H276   1.082       .  S
C265        C349   1.483       .  S
C266        C337   1.484       .  S
C267        C325   1.482       .  S
C268        C364   1.484       .  S
Zn279       O283   1.959       .  S
Zn279       O284   2.017       .  S
Zn279       O288   2.010       .  S
Zn279       O295   2.019       .  S
Zn280       O285   2.015       .  S
Zn280       O287   2.017       .  S
Zn280       O291   2.014       .  S
Zn281       O283   1.961       .  S
Zn281       O286   2.018       .  S
Zn281       O289   2.021       .  S
Zn281       O292   2.016       .  S
Zn282       O290   2.006       .  S
Zn282       O293   2.013       .  S
Zn282       O294   2.012       .  S
O284        C296   1.273       .  A
O286        C298   1.273       .  A
O288        C298   1.273       .  A
O289        C297   1.274       .  A
O291        C300   1.273       .  A
O292        C299   1.274       .  A
O293        C300   1.272       .  A
O295        C301   1.274       .  A
C296        C397   1.485       .  S
C297        C409   1.485       .  S
C298        C321   1.467       .  S
C299        C373   1.481       .  S
C300        C323   1.467       .  S
C301        C385   1.483       .  S
Zn302       O306   1.961       .  S
Zn302       O307   2.018       .  S
Zn302       O311   2.016       .  S
Zn302       O318   2.017       .  S
Zn303       O306   1.960       .  S
Zn303       O308   2.016       .  S
Zn303       O310   2.022       .  S
Zn303       O314   2.011       .  S
Zn304       O306   1.959       .  S
Zn304       O309   2.010       .  S
Zn304       O312   2.014       .  S
Zn304       O315   2.018       .  S
Zn305       O306   1.960       .  S
Zn305       O313   2.014       .  S
Zn305       O316   2.017       .  S
Zn305       O317   2.016       .  S
O307        C319   1.274       .  A
O308        C320   1.274       .  A
O309        C321   1.272       .  A
O310        C319   1.274       .  A
O311        C321   1.273       .  A
O312        C320   1.274       .  A
O313        C322   1.273       .  A
O314        C323   1.272       .  A
O315        C322   1.274       .  A
O316        C323   1.273       .  A
O317        C324   1.274       .  A
O318        C324   1.274       .  A
C319        C361   1.483       .  S
C320        C352   1.481       .  S
C322        C340   1.482       .  S
C324        C328   1.481       .  S
C325        C326   1.400       .  A
C325        C330   1.405       .  A
C326        C327   1.399       .  A
C326        H331   1.084       .  S
C327        C328   1.412       .  A
C327        O332   1.372       .  S
C328        C329   1.407       .  A
C329        C330   1.399       .  A
C329        H333   1.083       .  S
C330        O334   1.372       .  S
O332        H336   0.992       .  S
O334        H335   0.992       .  S
C337        C338   1.400       .  A
C337        C342   1.405       .  A
C338        C339   1.400       .  A
C338        H343   1.084       .  S
C339        C340   1.412       .  A
C339        O344   1.372       .  S
C340        C341   1.406       .  A
C341        C342   1.400       .  A
C341        H345   1.084       .  S
C342        O346   1.372       .  S
O344        H348   0.992       .  S
O346        H347   0.992       .  S
C349        C350   1.401       .  A
C349        C354   1.405       .  A
C350        C351   1.400       .  A
C350        H355   1.084       .  S
C351        C352   1.413       .  A
C351        O356   1.372       .  S
C352        C353   1.407       .  A
C353        C354   1.398       .  A
C353        H357   1.083       .  S
C354        O358   1.372       .  S
O356        H360   0.992       .  S
O358        H359   0.992       .  S
C361        C362   1.407       .  A
C361        C366   1.412       .  A
C362        C363   1.399       .  A
C362        H367   1.083       .  S
C363        C364   1.404       .  A
C363        O368   1.371       .  S
C364        C365   1.401       .  A
C365        C366   1.401       .  A
C365        H369   1.084       .  S
C366        O370   1.372       .  S
O368        H372   0.992       .  S
O370        H371   0.992       .  S
C373        C374   1.407       .  A
C374        C375   1.398       .  A
C374        H379   1.083       .  S
C375        C376   1.406       .  A
C375        O380   1.372       .  S
C377        C378   1.398       .  A
C377        H381   1.084       .  S
C378        O382   1.372       .  S
O380        H384   0.992       .  S
O382        H383   0.992       .  S
C385        C390   1.413       .  A
C386        C387   1.399       .  A
C386        H391   1.083       .  S
C387        O392   1.372       .  S
C388        C389   1.400       .  A
C389        C390   1.400       .  A
C389        H393   1.084       .  S
C390        O394   1.372       .  S
O392        H396   0.992       .  S
O394        H395   0.992       .  S
C397        C402   1.415       .  A
C398        C399   1.398       .  A
C398        H403   1.083       .  S
C399        O404   1.371       .  S
C400        C401   1.401       .  A
C401        C402   1.401       .  A
C401        H405   1.084       .  S
C402        O406   1.372       .  S
O404        H408   0.992       .  S
O406        H407   0.992       .  S
C409        C410   1.407       .  A
C410        C411   1.399       .  A
C410        H415   1.083       .  S
C411        C412   1.405       .  A
C411        O416   1.372       .  S
C413        C414   1.402       .  A
C413        H417   1.084       .  S
C414        O418   1.372       .  S
O416        H420   0.992       .  S
O418        H419   0.992       .  S
N421        C426   1.353   1_556  A
N421        H453   1.037       .  S
N422       C1269   1.351       .  A
N422        C430   1.351       .  A
N423        C427   1.353   1_546  A
N424       C1271   1.351       .  A
N424        C432   1.351       .  A
C425        C433   1.387       .  A
C425        C441   1.415   1_554  A
C426        C442   1.415   1_554  A
C426        C434   1.387       .  A
C427        C435   1.387       .  A
C427        C444   1.414   1_554  A
C428        C443   1.414       .  A
C428        C436   1.387       .  A
C429       N1262   1.351       .  A
C429        C441   1.412       .  A
C429        C437   1.386       .  A
C430        C444   1.412       .  A
C430        C438   1.386       .  A
C431       N1264   1.351       .  A
C431        C439   1.386       .  A
C431        C442   1.413       .  A
C432        C440   1.386       .  A
C432        C443   1.413   1_556  A
C433        H445   1.082       .  S
C434        H446   1.082       .  S
C435        H447   1.082       .  S
C436        H448   1.082       .  S
C437       C1278   1.371   1_455  A
C437        H449   1.082       .  S
C438       C1277   1.371       .  A
C438        H450   1.082       .  S
C439       C1280   1.372   1_455  A
C439        H451   1.082       .  S
C440       C1279   1.372       .  A
C440        H452   1.082       .  S
C441        C586   1.483       .  S
C442        C622   1.486       .  S
C443        C610   1.484       .  S
C444        C598   1.482   1_556  S
N455        C460   1.353       .  A
N455        H487   1.036       .  S
N456       C1303   1.351       .  A
N456        C464   1.352   1_655  A
N457        C462   1.352   1_545  A
N457        H488   1.036       .  S
N458       C1305   1.351       .  A
N458        C466   1.351   1_655  A
C459        C467   1.387       .  A
C459        C475   1.415       .  A
C460        C476   1.415       .  A
C460        C468   1.387       .  A
C461        C469   1.387       .  A
C461        C478   1.414       .  A
C462        C477   1.414       .  A
C462        C470   1.387       .  A
C463       N1296   1.351       .  A
C463        C475   1.414       .  A
C463        C471   1.387       .  A
C464        C478   1.413       .  A
C464        C472   1.386       .  A
C465       N1298   1.351       .  A
C465        C473   1.386       .  A
C465        C476   1.413       .  A
C466        C474   1.387       .  A
C466        C477   1.413       .  A
C467        H479   1.082       .  S
C468        H480   1.082       .  S
C469        H481   1.082       .  S
C470        H482   1.082       .  S
C471       C1312   1.371       .  A
C471        H483   1.082       .  S
C472       C1311   1.371   1_455  A
C472        H484   1.082       .  S
C473       C1314   1.372       .  A
C473        H485   1.082       .  S
C474       C1313   1.372   1_455  A
C474        H486   1.082       .  S
C475        C559   1.483       .  S
C476        C547   1.484       .  S
C477        C535   1.482       .  S
C478        C574   1.484       .  S
Zn489       O493   1.959       .  S
Zn489       O494   2.017       .  S
Zn489       O498   2.010       .  S
Zn489       O505   2.019       .  S
Zn490       O703   1.956       .  S
Zn490       O495   2.015       .  S
Zn490       O497   2.018       .  S
Zn490       O501   2.014       .  S
Zn491       O493   1.961       .  S
Zn491       O496   2.018       .  S
Zn491       O499   2.021       .  S
Zn491       O502   2.016       .  S
Zn492       O703   1.959       .  S
Zn492       O500   2.006       .  S
Zn492       O503   2.013       .  S
Zn492       O504   2.012       .  S
O493       Zn700   1.956   1_554  S
O493       Zn702   1.959   1_554  S
O494        C506   1.273       .  A
O495        C717   1.273       .  A
O496        C508   1.273       .  A
O497        C716   1.275       .  A
O498        C508   1.273       .  A
O499        C507   1.274   1_554  A
O500        C719   1.272       .  A
O501        C510   1.273       .  A
O502        C509   1.274       .  A
O503        C510   1.272       .  A
O504        C721   1.273       .  A
O505        C511   1.274       .  A
C506        C607   1.485       .  S
C506        O707   1.275   1_554  A
C507        C619   1.485       .  S
C507        O705   1.273       .  A
C508        C531   1.467       .  S
C509        C583   1.481   1_554  S
C509        O710   1.272   1_554  A
C510        C533   1.467       .  S
C511        C595   1.483       .  S
C511        O714   1.273   1_554  A
Zn512       O516   1.961       .  S
Zn512       O517   2.018       .  S
Zn512       O521   2.016       .  S
Zn512       O528   2.017       .  S
Zn513       O516   1.960       .  S
Zn513       O518   2.016       .  S
Zn513       O520   2.022       .  S
Zn513       O524   2.011       .  S
Zn514       O516   1.959       .  S
Zn514       O519   2.010       .  S
Zn514       O522   2.014       .  S
Zn514       O525   2.018       .  S
Zn515       O516   1.960       .  S
Zn515       O523   2.015       .  S
Zn515       O526   2.017       .  S
Zn515       O527   2.016       .  S
O517        C529   1.274       .  A
O518        C530   1.274       .  A
O519        C531   1.272       .  A
O520        C529   1.274       .  A
O521        C531   1.273       .  A
O522        C530   1.274       .  A
O523        C532   1.273       .  A
O524        C533   1.272       .  A
O525        C532   1.274       .  A
O526        C533   1.273       .  A
O527        C534   1.274       .  A
O528        C534   1.274       .  A
C529        C571   1.483       .  S
C530        C562   1.481       .  S
C532        C550   1.482       .  S
C534        C538   1.481       .  S
C535        C536   1.400       .  A
C535        C540   1.405       .  A
C536        C537   1.399       .  A
C536        H541   1.084       .  S
C537        C538   1.412       .  A
C537        O542   1.372       .  S
C538        C539   1.407       .  A
C539        C540   1.399       .  A
C539        H543   1.083       .  S
C540        O544   1.372       .  S
O542        H546   0.992       .  S
O544        H545   0.992       .  S
C547        C548   1.400       .  A
C547        C552   1.405       .  A
C548        C549   1.400       .  A
C548        H553   1.084       .  S
C549        C550   1.412       .  A
C549        O554   1.372       .  S
C550        C551   1.406       .  A
C551        C552   1.400       .  A
C551        H555   1.084       .  S
C552        O556   1.372       .  S
O554        H558   0.992       .  S
O556        H557   0.992       .  S
C559        C560   1.401       .  A
C559        C564   1.405       .  A
C560        C561   1.400       .  A
C560        H565   1.084       .  S
C561        C562   1.413       .  A
C561        O566   1.372       .  S
C562        C563   1.407       .  A
C563        C564   1.398       .  A
C563        H567   1.083       .  S
C564        O568   1.372       .  S
O566        H570   0.992       .  S
O568        H569   0.992       .  S
C571        C572   1.407       .  A
C571        C576   1.412       .  A
C572        C573   1.400       .  A
C572        H577   1.083       .  S
C573        C574   1.404       .  A
C573        O578   1.371       .  S
C574        C575   1.401       .  A
C575        C576   1.401       .  A
C575        H579   1.084       .  S
C576        O580   1.372       .  S
O578        H582   0.992       .  S
O580        H581   0.992       .  S
C583        C584   1.407   1_556  A
C583        C798   1.413       .  A
C584        C585   1.398       .  A
C584        H589   1.083       .  S
C585        C586   1.406   1_554  A
C585        O590   1.372       .  S
C586        C797   1.400       .  A
C587        C796   1.400       .  A
C587        C588   1.398       .  A
C587        H591   1.084       .  S
C588        C793   1.413       .  A
C588        O592   1.372       .  S
O590        H594   0.992       .  S
O592        H593   0.992       .  S
C595        C806   1.408   1_554  A
C595        C600   1.413       .  A
C596        C805   1.408       .  A
C596        C597   1.399       .  A
C596        H601   1.083       .  S
C597        C808   1.404       .  A
C597        O602   1.372       .  S
C598        C807   1.404   1_554  A
C598        C599   1.400       .  A
C599        C600   1.400       .  A
C599        H603   1.084       .  S
C600        O604   1.372       .  S
O602        H606   0.992       .  S
O604        H605   0.992       .  S
C607        C818   1.407   1_554  A
C607        C612   1.415       .  A
C608        C817   1.407       .  A
C608        C609   1.398       .  A
C608        H613   1.083       .  S
C609        C820   1.404       .  A
C609        O614   1.371       .  S
C610        C819   1.404   1_554  A
C610        C611   1.401       .  A
C611        C612   1.401       .  A
C611        H615   1.084       .  S
C612        O616   1.372       .  S
O614        H618   0.992       .  S
O616        H617   0.992       .  S
C619        C620   1.407   1_556  A
C619        C834   1.414       .  A
C620        C621   1.399       .  A
C620        H625   1.083       .  S
C621        C622   1.405   1_554  A
C621        O626   1.372       .  S
C622        C833   1.401       .  A
C623        C832   1.401       .  A
C623        C624   1.402       .  A
C623        H627   1.084       .  S
C624        C829   1.414       .  A
C624        O628   1.372       .  S
O626        H630   0.992       .  S
O628        H629   0.992       .  S
N631        C636   1.353       .  A
N631        H663   1.037       .  S
N632       C1479   1.351       .  A
N632        C640   1.351       .  A
N633        C637   1.353   1_545  A
N634       C1481   1.351       .  A
N634        C642   1.351       .  A
C635        C643   1.387       .  A
C635        C651   1.415       .  A
C636        C652   1.415       .  A
C636        C644   1.387       .  A
C637        C645   1.387       .  A
C637        C654   1.414       .  A
C638        C653   1.414       .  A
C638        C646   1.387       .  A
C639       N1472   1.351       .  A
C639        C651   1.412       .  A
C639        C647   1.386       .  A
C640        C654   1.412       .  A
C640        C648   1.386       .  A
C641       N1474   1.351       .  A
C641        C649   1.386       .  A
C641        C652   1.413       .  A
C642        C650   1.386       .  A
C642        C653   1.413       .  A
C643        H655   1.082       .  S
C644        H656   1.082       .  S
C645        H657   1.082       .  S
C646        H658   1.082       .  S
C647       C1488   1.371   1_455  A
C647        H659   1.082       .  S
C648       C1487   1.371       .  A
C648        H660   1.082       .  S
C649       C1490   1.372   1_455  A
C649        H661   1.082       .  S
C650       C1489   1.372       .  A
C650        H662   1.082       .  S
C651        C796   1.483       .  S
C652        C832   1.486       .  S
C653        C820   1.484       .  S
C654        C808   1.482       .  S
N665        C670   1.353       .  A
N665        H697   1.036       .  S
N666       C1513   1.351       .  A
N666        C674   1.352   1_655  A
N667        C672   1.352   1_545  A
N667        H698   1.036       .  S
N668       C1515   1.351       .  A
N668        C676   1.351   1_655  A
C669        C677   1.387       .  A
C669        C685   1.415       .  A
C670        C686   1.415       .  A
C670        C678   1.387       .  A
C671        C679   1.387       .  A
C671        C688   1.414       .  A
C672        C687   1.414       .  A
C672        C680   1.387       .  A
C673       N1506   1.351       .  A
C673        C685   1.414       .  A
C673        C681   1.387       .  A
C674        C688   1.413       .  A
C674        C682   1.386       .  A
C675       N1508   1.351       .  A
C675        C683   1.386       .  A
C675        C686   1.413       .  A
C676        C684   1.387       .  A
C676        C687   1.413       .  A
C677        H689   1.082       .  S
C678        H690   1.082       .  S
C679        H691   1.082       .  S
C680        H692   1.082       .  S
C681       C1522   1.371       .  A
C681        H693   1.082       .  S
C682       C1521   1.371   1_455  A
C682        H694   1.082       .  S
C683       C1524   1.372       .  A
C683        H695   1.082       .  S
C684       C1523   1.372   1_455  A
C684        H696   1.082       .  S
C685        C769   1.483       .  S
C686        C757   1.484       .  S
C687        C745   1.482       .  S
C688        C784   1.484       .  S
Zn699       O703   1.959       .  S
Zn699       O704   2.017       .  S
Zn699       O708   2.010       .  S
Zn699       O715   2.019       .  S
Zn700       O705   2.015       .  S
Zn700       O707   2.017       .  S
Zn700       O711   2.014       .  S
Zn701       O703   1.961       .  S
Zn701       O706   2.018       .  S
Zn701       O709   2.021       .  S
Zn701       O712   2.016       .  S
Zn702       O710   2.006       .  S
Zn702       O713   2.013       .  S
Zn702       O714   2.012       .  S
O704        C716   1.273       .  A
O706        C718   1.273       .  A
O708        C718   1.273       .  A
O709        C717   1.274       .  A
O711        C720   1.273       .  A
O712        C719   1.274       .  A
O713        C720   1.272       .  A
O715        C721   1.274       .  A
C716        C817   1.485       .  S
C717        C829   1.485       .  S
C718        C741   1.467       .  S
C719        C793   1.481       .  S
C720        C743   1.467       .  S
C721        C805   1.483       .  S
Zn722       O726   1.961       .  S
Zn722       O727   2.018       .  S
Zn722       O731   2.016       .  S
Zn722       O738   2.017       .  S
Zn723       O726   1.960       .  S
Zn723       O728   2.016       .  S
Zn723       O730   2.022       .  S
Zn723       O734   2.011       .  S
Zn724       O726   1.959       .  S
Zn724       O729   2.010       .  S
Zn724       O732   2.014       .  S
Zn724       O735   2.018       .  S
Zn725       O726   1.960       .  S
Zn725       O733   2.014       .  S
Zn725       O736   2.017       .  S
Zn725       O737   2.016       .  S
O727        C739   1.274       .  A
O728        C740   1.274       .  A
O729        C741   1.272       .  A
O730        C739   1.274       .  A
O731        C741   1.273       .  A
O732        C740   1.274       .  A
O733        C742   1.273       .  A
O734        C743   1.272       .  A
O735        C742   1.274       .  A
O736        C743   1.273       .  A
O737        C744   1.274       .  A
O738        C744   1.274       .  A
C739        C781   1.483       .  S
C740        C772   1.481       .  S
C742        C760   1.482       .  S
C744        C748   1.481       .  S
C745        C746   1.400       .  A
C745        C750   1.405       .  A
C746        C747   1.399       .  A
C746        H751   1.084       .  S
C747        C748   1.412       .  A
C747        O752   1.372       .  S
C748        C749   1.407       .  A
C749        C750   1.399       .  A
C749        H753   1.083       .  S
C750        O754   1.372       .  S
O752        H756   0.992       .  S
O754        H755   0.992       .  S
C757        C758   1.400       .  A
C757        C762   1.405       .  A
C758        C759   1.400       .  A
C758        H763   1.084       .  S
C759        C760   1.412       .  A
C759        O764   1.372       .  S
C760        C761   1.406       .  A
C761        C762   1.400       .  A
C761        H765   1.084       .  S
C762        O766   1.372       .  S
O764        H768   0.992       .  S
O766        H767   0.992       .  S
C769        C770   1.401       .  A
C769        C774   1.405       .  A
C770        C771   1.400       .  A
C770        H775   1.084       .  S
C771        C772   1.413       .  A
C771        O776   1.372       .  S
C772        C773   1.407       .  A
C773        C774   1.398       .  A
C773        H777   1.083       .  S
C774        O778   1.372       .  S
O776        H780   0.992       .  S
O778        H779   0.992       .  S
C781        C782   1.407       .  A
C781        C786   1.412       .  A
C782        C783   1.399       .  A
C782        H787   1.083       .  S
C783        C784   1.404       .  A
C783        O788   1.371       .  S
C784        C785   1.401       .  A
C785        C786   1.401       .  A
C785        H789   1.084       .  S
C786        O790   1.372       .  S
O788        H792   0.992       .  S
O790        H791   0.992       .  S
C793        C794   1.407       .  A
C794        C795   1.398       .  A
C794        H799   1.083       .  S
C795        C796   1.406       .  A
C795        O800   1.372       .  S
C797        C798   1.398       .  A
C797        H801   1.084       .  S
C798        O802   1.372       .  S
O800        H804   0.992       .  S
O802        H803   0.992       .  S
C805        C810   1.413       .  A
C806        C807   1.399       .  A
C806        H811   1.083       .  S
C807        O812   1.372       .  S
C808        C809   1.400       .  A
C809        C810   1.400       .  A
C809        H813   1.084       .  S
C810        O814   1.372       .  S
O812        H816   0.992       .  S
O814        H815   0.992       .  S
C817        C822   1.415       .  A
C818        C819   1.398       .  A
C818        H823   1.083       .  S
C819        O824   1.371       .  S
C820        C821   1.401       .  A
C821        C822   1.401       .  A
C821        H825   1.084       .  S
C822        O826   1.372       .  S
O824        H828   0.992       .  S
O826        H827   0.992       .  S
C829        C830   1.407       .  A
C830        C831   1.399       .  A
C830        H835   1.083       .  S
C831        C832   1.405       .  A
C831        O836   1.372       .  S
C833        C834   1.402       .  A
C833        H837   1.084       .  S
C834        O838   1.372       .  S
O836        H840   0.992       .  S
O838        H839   0.992       .  S
N841        C846   1.353   1_566  A
N841       C1265   1.353   1_556  A
N841        H873   1.037       .  S
N842        C850   1.351   1_455  A
N843       C1268   1.353   1_556  A
N843        C847   1.353   1_556  A
N843       H1294   1.037       .  S
N844        C852   1.351   1_455  A
C845       N1261   1.353   1_554  A
C845        C853   1.387       .  A
C845        C861   1.415   1_554  A
C846        C862   1.415   1_554  A
C846        C854   1.387       .  A
C847        C855   1.387       .  A
C847        C864   1.414   1_554  A
C848       N1263   1.353   1_554  A
C848        C863   1.414       .  A
C848        C856   1.387       .  A
C849        C861   1.412       .  A
C849        C857   1.386       .  A
C850        C864   1.412       .  A
C850        C858   1.386       .  A
C851        C859   1.386       .  A
C851        C862   1.413       .  A
C852        C860   1.386       .  A
C852        C863   1.413   1_556  A
C853       C1274   1.374       .  A
C853        H865   1.082       .  S
C854       C1273   1.374   1_545  A
C854        H866   1.082       .  S
C855       C1276   1.375       .  A
C855        H867   1.082       .  S
C856       C1275   1.375   1_545  A
C856        H868   1.082       .  S
C857        H869   1.082       .  S
C858        H870   1.082       .  S
C859        H871   1.082       .  S
C860        H872   1.082       .  S
C861       C1006   1.483       .  S
C862       C1042   1.486       .  S
C863       C1030   1.484       .  S
C864       C1018   1.482   1_556  S
H874       N1263   1.037   1_565  S
N875        C880   1.353       .  A
N875       C1299   1.352       .  A
N875        H907   1.036       .  S
N876        C884   1.352       .  A
N877        C882   1.352       .  A
N877       C1301   1.352       .  A
N877        H908   1.036       .  S
N878        C886   1.351       .  A
C879       N1295   1.352   1_545  A
C879        C887   1.387       .  A
C879        C895   1.415       .  A
C880        C896   1.415       .  A
C880        C888   1.387       .  A
C881       N1297   1.352       .  A
C881        C889   1.387       .  A
C881        C898   1.414       .  A
C882        C897   1.414       .  A
C882        C890   1.387       .  A
C883        C895   1.414       .  A
C883        C891   1.387       .  A
C884        C898   1.413       .  A
C884        C892   1.386       .  A
C885        C893   1.386       .  A
C885        C896   1.413       .  A
C886        C894   1.387       .  A
C886        C897   1.413       .  A
C887       C1308   1.375   1_545  A
C887        H899   1.082       .  S
C888       C1307   1.375       .  A
C888        H900   1.082       .  S
C889       C1310   1.375   1_545  A
C889        H901   1.082       .  S
C890       C1309   1.375       .  A
C890        H902   1.082       .  S
C891        H903   1.082       .  S
C892        H904   1.082       .  S
C893        H905   1.082       .  S
C894        H906   1.082       .  S
C895        C979   1.483       .  S
C896        C967   1.484       .  S
C897        C955   1.482       .  S
C898        C994   1.484       .  S
Zn909       O913   1.959       .  S
Zn909       O914   2.017       .  S
Zn909       O918   2.010       .  S
Zn909       O925   2.019       .  S
Zn910      O1123   1.956       .  S
Zn910       O915   2.015       .  S
Zn910       O917   2.018       .  S
Zn910       O921   2.014       .  S
Zn911       O913   1.961       .  S
Zn911       O916   2.018       .  S
Zn911       O919   2.021       .  S
Zn911       O922   2.016       .  S
Zn912      O1123   1.959       .  S
Zn912       O920   2.006       .  S
Zn912       O923   2.013       .  S
Zn912       O924   2.012       .  S
O913      Zn1120   1.956   1_554  S
O913      Zn1122   1.959   1_554  S
O914        C926   1.273       .  A
O915       C1137   1.273       .  A
O916        C928   1.273       .  A
O917       C1136   1.275       .  A
O918        C928   1.273       .  A
O919        C927   1.274   1_554  A
O920       C1139   1.272       .  A
O921        C930   1.273       .  A
O922        C929   1.274       .  A
O923        C930   1.272       .  A
O924       C1141   1.273       .  A
O925        C931   1.274       .  A
C926       C1027   1.485       .  S
C926       O1127   1.275   1_554  A
C927       C1039   1.485       .  S
C927       O1125   1.273       .  A
C928        C951   1.467       .  S
C929       C1003   1.481   1_554  S
C929       O1130   1.272   1_554  A
C930        C953   1.467       .  S
C931       C1015   1.483       .  S
C931       O1134   1.273   1_554  A
Zn932       O936   1.961       .  S
Zn932       O937   2.018       .  S
Zn932       O941   2.016       .  S
Zn932       O948   2.017       .  S
Zn933       O936   1.960       .  S
Zn933       O938   2.016       .  S
Zn933       O940   2.022       .  S
Zn933       O944   2.011       .  S
Zn934       O936   1.959       .  S
Zn934       O939   2.010       .  S
Zn934       O942   2.014       .  S
Zn934       O945   2.018       .  S
Zn935       O936   1.960       .  S
Zn935       O943   2.015       .  S
Zn935       O946   2.017       .  S
Zn935       O947   2.016       .  S
O937        C949   1.274       .  A
O938        C950   1.274       .  A
O939        C951   1.272       .  A
O940        C949   1.274       .  A
O941        C951   1.273       .  A
O942        C950   1.274       .  A
O943        C952   1.273       .  A
O944        C953   1.272       .  A
O945        C952   1.274       .  A
O946        C953   1.273       .  A
O947        C954   1.274       .  A
O948        C954   1.274       .  A
C949        C991   1.483       .  S
C950        C982   1.481       .  S
C952        C970   1.482       .  S
C954        C958   1.481       .  S
C955        C956   1.400       .  A
C955        C960   1.405       .  A
C956        C957   1.399       .  A
C956        H961   1.084       .  S
C957        C958   1.412       .  A
C957        O962   1.372       .  S
C958        C959   1.407       .  A
C959        C960   1.399       .  A
C959        H963   1.083       .  S
C960        O964   1.372       .  S
O962        H966   0.992       .  S
O964        H965   0.992       .  S
C967        C968   1.400       .  A
C967        C972   1.405       .  A
C968        C969   1.400       .  A
C968        H973   1.084       .  S
C969        C970   1.412       .  A
C969        O974   1.372       .  S
C970        C971   1.406       .  A
C971        C972   1.400       .  A
C971        H975   1.084       .  S
C972        O976   1.372       .  S
O974        H978   0.992       .  S
O976        H977   0.992       .  S
C979        C980   1.401       .  A
C979        C984   1.405       .  A
C980        C981   1.400       .  A
C980        H985   1.084       .  S
C981        C982   1.413       .  A
C981        O986   1.372       .  S
C982        C983   1.407       .  A
C983        C984   1.398       .  A
C983        H987   1.083       .  S
C984        O988   1.372       .  S
O986        H990   0.992       .  S
O988        H989   0.992       .  S
C991        C992   1.407       .  A
C991        C996   1.412       .  A
C992        C993   1.400       .  A
C992        H997   1.083       .  S
C993        C994   1.404       .  A
C993        O998   1.371       .  S
C994        C995   1.401       .  A
C995        C996   1.401       .  A
C995        H999   1.084       .  S
C996       O1000   1.372       .  S
O998       H1002   0.992       .  S
O1000      H1001   0.992       .  S
C1003      C1004   1.407   1_556  A
C1003      C1218   1.413       .  A
C1004      C1005   1.398       .  A
C1004      H1009   1.083       .  S
C1005      C1006   1.406   1_554  A
C1005      O1010   1.372       .  S
C1006      C1217   1.400       .  A
C1007      C1216   1.400       .  A
C1007      C1008   1.398       .  A
C1007      H1011   1.084       .  S
C1008      C1213   1.413       .  A
C1008      O1012   1.372       .  S
O1010      H1014   0.992       .  S
O1012      H1013   0.992       .  S
C1015      C1226   1.408   1_554  A
C1015      C1020   1.413       .  A
C1016      C1225   1.408       .  A
C1016      C1017   1.399       .  A
C1016      H1021   1.083       .  S
C1017      C1228   1.404       .  A
C1017      O1022   1.372       .  S
C1018      C1227   1.404   1_554  A
C1018      C1019   1.400       .  A
C1019      C1020   1.400       .  A
C1019      H1023   1.084       .  S
C1020      O1024   1.372       .  S
O1022      H1026   0.992       .  S
O1024      H1025   0.992       .  S
C1027      C1238   1.407   1_554  A
C1027      C1032   1.415       .  A
C1028      C1237   1.407       .  A
C1028      C1029   1.398       .  A
C1028      H1033   1.083       .  S
C1029      C1240   1.404       .  A
C1029      O1034   1.371       .  S
C1030      C1239   1.404   1_554  A
C1030      C1031   1.401       .  A
C1031      C1032   1.401       .  A
C1031      H1035   1.084       .  S
C1032      O1036   1.372       .  S
O1034      H1038   0.992       .  S
O1036      H1037   0.992       .  S
C1039      C1040   1.407   1_556  A
C1039      C1254   1.414       .  A
C1040      C1041   1.399       .  A
C1040      H1045   1.083       .  S
C1041      C1042   1.405   1_554  A
C1041      O1046   1.372       .  S
C1042      C1253   1.401       .  A
C1043      C1252   1.401       .  A
C1043      C1044   1.402       .  A
C1043      H1047   1.084       .  S
C1044      C1249   1.414       .  A
C1044      O1048   1.372       .  S
O1046      H1050   0.992       .  S
O1048      H1049   0.992       .  S
N1051      C1056   1.353   1_565  A
N1051      C1475   1.353       .  A
N1051      H1083   1.037       .  S
N1052      C1060   1.351   1_455  A
N1053      C1478   1.353       .  A
N1053      C1057   1.353       .  A
N1053      H1504   1.037       .  S
N1054      C1062   1.351   1_455  A
C1055      N1471   1.353       .  A
C1055      C1063   1.387       .  A
C1055      C1071   1.415       .  A
C1056      C1072   1.415       .  A
C1056      C1064   1.387       .  A
C1057      C1065   1.387       .  A
C1057      C1074   1.414       .  A
C1058      N1473   1.353       .  A
C1058      C1073   1.414       .  A
C1058      C1066   1.387       .  A
C1059      C1071   1.412       .  A
C1059      C1067   1.386       .  A
C1060      C1074   1.412       .  A
C1060      C1068   1.386       .  A
C1061      C1069   1.386       .  A
C1061      C1072   1.413       .  A
C1062      C1070   1.386       .  A
C1062      C1073   1.413       .  A
C1063      C1484   1.374       .  A
C1063      H1075   1.082       .  S
C1064      C1483   1.374   1_545  A
C1064      H1076   1.082       .  S
C1065      C1486   1.375       .  A
C1065      H1077   1.082       .  S
C1066      C1485   1.375   1_545  A
C1066      H1078   1.082       .  S
C1067      H1079   1.082       .  S
C1068      H1080   1.082       .  S
C1069      H1081   1.082       .  S
C1070      H1082   1.082       .  S
C1071      C1216   1.483       .  S
C1072      C1252   1.486       .  S
C1073      C1240   1.484       .  S
C1074      C1228   1.482       .  S
H1084      N1473   1.037   1_565  S
N1085      C1090   1.353       .  A
N1085      C1509   1.352       .  A
N1085      H1117   1.036       .  S
N1086      C1094   1.352       .  A
N1087      C1092   1.352       .  A
N1087      C1511   1.353       .  A
N1087      H1118   1.036       .  S
N1088      C1096   1.351       .  A
C1089      N1505   1.352   1_545  A
C1089      C1097   1.387       .  A
C1089      C1105   1.415       .  A
C1090      C1106   1.415       .  A
C1090      C1098   1.387       .  A
C1091      N1507   1.353       .  A
C1091      C1099   1.387       .  A
C1091      C1108   1.414       .  A
C1092      C1107   1.414       .  A
C1092      C1100   1.387       .  A
C1093      C1105   1.414       .  A
C1093      C1101   1.387       .  A
C1094      C1108   1.413       .  A
C1094      C1102   1.386       .  A
C1095      C1103   1.386       .  A
C1095      C1106   1.413       .  A
C1096      C1104   1.387       .  A
C1096      C1107   1.413       .  A
C1097      C1518   1.375   1_545  A
C1097      H1109   1.082       .  S
C1098      C1517   1.375       .  A
C1098      H1110   1.082       .  S
C1099      C1520   1.375   1_545  A
C1099      H1111   1.082       .  S
C1100      C1519   1.375       .  A
C1100      H1112   1.082       .  S
C1101      H1113   1.082       .  S
C1102      H1114   1.082       .  S
C1103      H1115   1.082       .  S
C1104      H1116   1.082       .  S
C1105      C1189   1.483       .  S
C1106      C1177   1.484       .  S
C1107      C1165   1.482       .  S
C1108      C1204   1.484       .  S
Zn1119     O1123   1.959       .  S
Zn1119     O1124   2.017       .  S
Zn1119     O1128   2.010       .  S
Zn1119     O1135   2.019       .  S
Zn1120     O1125   2.015       .  S
Zn1120     O1127   2.017       .  S
Zn1120     O1131   2.014       .  S
Zn1121     O1123   1.961       .  S
Zn1121     O1126   2.018       .  S
Zn1121     O1129   2.021       .  S
Zn1121     O1132   2.016       .  S
Zn1122     O1130   2.006       .  S
Zn1122     O1133   2.013       .  S
Zn1122     O1134   2.012       .  S
O1124      C1136   1.273       .  A
O1126      C1138   1.273       .  A
O1128      C1138   1.273       .  A
O1129      C1137   1.274       .  A
O1131      C1140   1.273       .  A
O1132      C1139   1.274       .  A
O1133      C1140   1.272       .  A
O1135      C1141   1.274       .  A
C1136      C1237   1.485       .  S
C1137      C1249   1.485       .  S
C1138      C1161   1.467       .  S
C1139      C1213   1.481       .  S
C1140      C1163   1.467       .  S
C1141      C1225   1.483       .  S
Zn1142     O1146   1.961       .  S
Zn1142     O1147   2.018       .  S
Zn1142     O1151   2.016       .  S
Zn1142     O1158   2.017       .  S
Zn1143     O1146   1.960       .  S
Zn1143     O1148   2.016       .  S
Zn1143     O1150   2.022       .  S
Zn1143     O1154   2.011       .  S
Zn1144     O1146   1.959       .  S
Zn1144     O1149   2.010       .  S
Zn1144     O1152   2.014       .  S
Zn1144     O1155   2.018       .  S
Zn1145     O1146   1.960       .  S
Zn1145     O1153   2.014       .  S
Zn1145     O1156   2.017       .  S
Zn1145     O1157   2.016       .  S
O1147      C1159   1.274       .  A
O1148      C1160   1.274       .  A
O1149      C1161   1.272       .  A
O1150      C1159   1.274       .  A
O1151      C1161   1.273       .  A
O1152      C1160   1.274       .  A
O1153      C1162   1.273       .  A
O1154      C1163   1.272       .  A
O1155      C1162   1.274       .  A
O1156      C1163   1.273       .  A
O1157      C1164   1.274       .  A
O1158      C1164   1.274       .  A
C1159      C1201   1.483       .  S
C1160      C1192   1.481       .  S
C1162      C1180   1.482       .  S
C1164      C1168   1.481       .  S
C1165      C1166   1.400       .  A
C1165      C1170   1.405       .  A
C1166      C1167   1.399       .  A
C1166      H1171   1.084       .  S
C1167      C1168   1.412       .  A
C1167      O1172   1.372       .  S
C1168      C1169   1.407       .  A
C1169      C1170   1.399       .  A
C1169      H1173   1.083       .  S
C1170      O1174   1.372       .  S
O1172      H1176   0.992       .  S
O1174      H1175   0.992       .  S
C1177      C1178   1.400       .  A
C1177      C1182   1.405       .  A
C1178      C1179   1.400       .  A
C1178      H1183   1.084       .  S
C1179      C1180   1.412       .  A
C1179      O1184   1.372       .  S
C1180      C1181   1.406       .  A
C1181      C1182   1.400       .  A
C1181      H1185   1.084       .  S
C1182      O1186   1.372       .  S
O1184      H1188   0.992       .  S
O1186      H1187   0.992       .  S
C1189      C1190   1.401       .  A
C1189      C1194   1.405       .  A
C1190      C1191   1.400       .  A
C1190      H1195   1.084       .  S
C1191      C1192   1.413       .  A
C1191      O1196   1.372       .  S
C1192      C1193   1.407       .  A
C1193      C1194   1.398       .  A
C1193      H1197   1.083       .  S
C1194      O1198   1.372       .  S
O1196      H1200   0.992       .  S
O1198      H1199   0.992       .  S
C1201      C1202   1.407       .  A
C1201      C1206   1.412       .  A
C1202      C1203   1.399       .  A
C1202      H1207   1.083       .  S
C1203      C1204   1.404       .  A
C1203      O1208   1.371       .  S
C1204      C1205   1.401       .  A
C1205      C1206   1.401       .  A
C1205      H1209   1.084       .  S
C1206      O1210   1.372       .  S
O1208      H1212   0.992       .  S
O1210      H1211   0.992       .  S
C1213      C1214   1.407       .  A
C1214      C1215   1.398       .  A
C1214      H1219   1.083       .  S
C1215      C1216   1.406       .  A
C1215      O1220   1.372       .  S
C1217      C1218   1.398       .  A
C1217      H1221   1.084       .  S
C1218      O1222   1.372       .  S
O1220      H1224   0.992       .  S
O1222      H1223   0.992       .  S
C1225      C1230   1.413       .  A
C1226      C1227   1.399       .  A
C1226      H1231   1.083       .  S
C1227      O1232   1.372       .  S
C1228      C1229   1.400       .  A
C1229      C1230   1.400       .  A
C1229      H1233   1.084       .  S
C1230      O1234   1.372       .  S
O1232      H1236   0.992       .  S
O1234      H1235   0.992       .  S
C1237      C1242   1.415       .  A
C1238      C1239   1.398       .  A
C1238      H1243   1.083       .  S
C1239      O1244   1.371       .  S
C1240      C1241   1.401       .  A
C1241      C1242   1.401       .  A
C1241      H1245   1.084       .  S
C1242      O1246   1.372       .  S
O1244      H1248   0.992       .  S
O1246      H1247   0.992       .  S
C1249      C1250   1.407       .  A
C1250      C1251   1.399       .  A
C1250      H1255   1.083       .  S
C1251      C1252   1.405       .  A
C1251      O1256   1.372       .  S
C1253      C1254   1.402       .  A
C1253      H1257   1.084       .  S
C1254      O1258   1.372       .  S
O1256      H1260   0.992       .  S
O1258      H1259   0.992       .  S
N1261      C1266   1.353   1_556  A
N1261      H1293   1.037       .  S
N1262      C1270   1.351   1_455  A
N1263      C1267   1.353   1_546  A
N1264      C1272   1.351   1_455  A
C1265      C1273   1.387       .  A
C1265      C1281   1.415   1_554  A
C1266      C1282   1.415   1_554  A
C1266      C1274   1.387       .  A
C1267      C1275   1.387       .  A
C1267      C1284   1.414   1_554  A
C1268      C1283   1.414       .  A
C1268      C1276   1.387       .  A
C1269      C1281   1.412       .  A
C1269      C1277   1.386       .  A
C1270      C1284   1.412       .  A
C1270      C1278   1.386       .  A
C1271      C1279   1.386       .  A
C1271      C1282   1.413       .  A
C1272      C1280   1.386       .  A
C1272      C1283   1.413   1_556  A
C1273      H1285   1.082       .  S
C1274      H1286   1.082       .  S
C1275      H1287   1.082       .  S
C1276      H1288   1.082       .  S
C1277      H1289   1.082       .  S
C1278      H1290   1.082       .  S
C1279      H1291   1.082       .  S
C1280      H1292   1.082       .  S
C1281      C1426   1.483       .  S
C1282      C1462   1.486       .  S
C1283      C1450   1.484       .  S
C1284      C1438   1.482   1_556  S
N1295      C1300   1.353       .  A
N1295      H1327   1.036       .  S
N1296      C1304   1.352       .  A
N1297      C1302   1.352   1_545  A
N1297      H1328   1.036       .  S
N1298      C1306   1.351       .  A
C1299      C1307   1.387       .  A
C1299      C1315   1.415       .  A
C1300      C1316   1.415       .  A
C1300      C1308   1.387       .  A
C1301      C1309   1.387       .  A
C1301      C1318   1.414       .  A
C1302      C1317   1.414       .  A
C1302      C1310   1.387       .  A
C1303      C1315   1.414       .  A
C1303      C1311   1.387       .  A
C1304      C1318   1.413       .  A
C1304      C1312   1.386       .  A
C1305      C1313   1.386       .  A
C1305      C1316   1.413       .  A
C1306      C1314   1.387       .  A
C1306      C1317   1.413       .  A
C1307      H1319   1.082       .  S
C1308      H1320   1.082       .  S
C1309      H1321   1.082       .  S
C1310      H1322   1.082       .  S
C1311      H1323   1.082       .  S
C1312      H1324   1.082       .  S
C1313      H1325   1.082       .  S
C1314      H1326   1.082       .  S
C1315      C1399   1.483       .  S
C1316      C1387   1.484       .  S
C1317      C1375   1.482       .  S
C1318      C1414   1.484       .  S
Zn1329     O1333   1.959       .  S
Zn1329     O1334   2.017       .  S
Zn1329     O1338   2.010       .  S
Zn1329     O1345   2.019       .  S
Zn1330     O1543   1.956       .  S
Zn1330     O1335   2.015       .  S
Zn1330     O1337   2.018       .  S
Zn1330     O1341   2.014       .  S
Zn1331     O1333   1.961       .  S
Zn1331     O1336   2.018       .  S
Zn1331     O1339   2.021       .  S
Zn1331     O1342   2.016       .  S
Zn1332     O1543   1.959       .  S
Zn1332     O1340   2.006       .  S
Zn1332     O1343   2.013       .  S
Zn1332     O1344   2.012       .  S
O1333     Zn1540   1.956   1_554  S
O1333     Zn1542   1.959   1_554  S
O1334      C1346   1.273       .  A
O1335      C1557   1.273       .  A
O1336      C1348   1.273       .  A
O1337      C1556   1.275       .  A
O1338      C1348   1.273       .  A
O1339      C1347   1.274   1_554  A
O1340      C1559   1.272       .  A
O1341      C1350   1.273       .  A
O1342      C1349   1.274       .  A
O1343      C1350   1.272       .  A
O1344      C1561   1.273       .  A
O1345      C1351   1.274       .  A
C1346      C1447   1.485       .  S
C1346      O1547   1.275   1_554  A
C1347      C1459   1.485       .  S
C1347      O1545   1.273       .  A
C1348      C1371   1.467       .  S
C1349      C1423   1.481   1_554  S
C1349      O1550   1.272   1_554  A
C1350      C1373   1.467       .  S
C1351      C1435   1.483       .  S
C1351      O1554   1.273   1_554  A
Zn1352     O1356   1.961       .  S
Zn1352     O1357   2.018       .  S
Zn1352     O1361   2.016       .  S
Zn1352     O1368   2.017       .  S
Zn1353     O1356   1.960       .  S
Zn1353     O1358   2.016       .  S
Zn1353     O1360   2.022       .  S
Zn1353     O1364   2.011       .  S
Zn1354     O1356   1.959       .  S
Zn1354     O1359   2.010       .  S
Zn1354     O1362   2.014       .  S
Zn1354     O1365   2.018       .  S
Zn1355     O1356   1.960       .  S
Zn1355     O1363   2.015       .  S
Zn1355     O1366   2.017       .  S
Zn1355     O1367   2.016       .  S
O1357      C1369   1.274       .  A
O1358      C1370   1.274       .  A
O1359      C1371   1.272       .  A
O1360      C1369   1.274       .  A
O1361      C1371   1.273       .  A
O1362      C1370   1.274       .  A
O1363      C1372   1.273       .  A
O1364      C1373   1.272       .  A
O1365      C1372   1.274       .  A
O1366      C1373   1.273       .  A
O1367      C1374   1.274       .  A
O1368      C1374   1.274       .  A
C1369      C1411   1.483       .  S
C1370      C1402   1.481       .  S
C1372      C1390   1.482       .  S
C1374      C1378   1.481       .  S
C1375      C1376   1.400       .  A
C1375      C1380   1.405       .  A
C1376      C1377   1.399       .  A
C1376      H1381   1.084       .  S
C1377      C1378   1.412       .  A
C1377      O1382   1.372       .  S
C1378      C1379   1.407       .  A
C1379      C1380   1.399       .  A
C1379      H1383   1.083       .  S
C1380      O1384   1.372       .  S
O1382      H1386   0.992       .  S
O1384      H1385   0.992       .  S
C1387      C1388   1.400       .  A
C1387      C1392   1.405       .  A
C1388      C1389   1.400       .  A
C1388      H1393   1.084       .  S
C1389      C1390   1.412       .  A
C1389      O1394   1.372       .  S
C1390      C1391   1.406       .  A
C1391      C1392   1.400       .  A
C1391      H1395   1.084       .  S
C1392      O1396   1.372       .  S
O1394      H1398   0.992       .  S
O1396      H1397   0.992       .  S
C1399      C1400   1.401       .  A
C1399      C1404   1.405       .  A
C1400      C1401   1.400       .  A
C1400      H1405   1.084       .  S
C1401      C1402   1.413       .  A
C1401      O1406   1.372       .  S
C1402      C1403   1.407       .  A
C1403      C1404   1.398       .  A
C1403      H1407   1.083       .  S
C1404      O1408   1.372       .  S
O1406      H1410   0.992       .  S
O1408      H1409   0.992       .  S
C1411      C1412   1.407       .  A
C1411      C1416   1.412       .  A
C1412      C1413   1.400       .  A
C1412      H1417   1.083       .  S
C1413      C1414   1.404       .  A
C1413      O1418   1.371       .  S
C1414      C1415   1.401       .  A
C1415      C1416   1.401       .  A
C1415      H1419   1.084       .  S
C1416      O1420   1.372       .  S
O1418      H1422   0.992       .  S
O1420      H1421   0.992       .  S
C1423      C1424   1.407   1_556  A
C1423      C1638   1.413       .  A
C1424      C1425   1.398       .  A
C1424      H1429   1.083       .  S
C1425      C1426   1.406   1_554  A
C1425      O1430   1.372       .  S
C1426      C1637   1.400       .  A
C1427      C1636   1.400       .  A
C1427      C1428   1.398       .  A
C1427      H1431   1.084       .  S
C1428      C1633   1.413       .  A
C1428      O1432   1.372       .  S
O1430      H1434   0.992       .  S
O1432      H1433   0.992       .  S
C1435      C1646   1.408   1_554  A
C1435      C1440   1.413       .  A
C1436      C1645   1.408       .  A
C1436      C1437   1.399       .  A
C1436      H1441   1.083       .  S
C1437      C1648   1.404       .  A
C1437      O1442   1.372       .  S
C1438      C1647   1.404   1_554  A
C1438      C1439   1.400       .  A
C1439      C1440   1.400       .  A
C1439      H1443   1.084       .  S
C1440      O1444   1.372       .  S
O1442      H1446   0.992       .  S
O1444      H1445   0.992       .  S
C1447      C1658   1.407   1_554  A
C1447      C1452   1.415       .  A
C1448      C1657   1.407       .  A
C1448      C1449   1.398       .  A
C1448      H1453   1.083       .  S
C1449      C1660   1.404       .  A
C1449      O1454   1.371       .  S
C1450      C1659   1.404   1_554  A
C1450      C1451   1.401       .  A
C1451      C1452   1.401       .  A
C1451      H1455   1.084       .  S
C1452      O1456   1.372       .  S
O1454      H1458   0.992       .  S
O1456      H1457   0.992       .  S
C1459      C1460   1.407   1_556  A
C1459      C1674   1.414       .  A
C1460      C1461   1.399       .  A
C1460      H1465   1.083       .  S
C1461      C1462   1.405   1_554  A
C1461      O1466   1.372       .  S
C1462      C1673   1.401       .  A
C1463      C1672   1.401       .  A
C1463      C1464   1.402       .  A
C1463      H1467   1.084       .  S
C1464      C1669   1.414       .  A
C1464      O1468   1.372       .  S
O1466      H1470   0.992       .  S
O1468      H1469   0.992       .  S
N1471      C1476   1.353       .  A
N1471      H1503   1.037       .  S
N1472      C1480   1.351   1_455  A
N1473      C1477   1.353   1_545  A
N1474      C1482   1.351   1_455  A
C1475      C1483   1.387       .  A
C1475      C1491   1.415       .  A
C1476      C1492   1.415       .  A
C1476      C1484   1.387       .  A
C1477      C1485   1.387       .  A
C1477      C1494   1.414       .  A
C1478      C1493   1.414       .  A
C1478      C1486   1.387       .  A
C1479      C1491   1.412       .  A
C1479      C1487   1.386       .  A
C1480      C1494   1.412       .  A
C1480      C1488   1.386       .  A
C1481      C1489   1.386       .  A
C1481      C1492   1.413       .  A
C1482      C1490   1.386       .  A
C1482      C1493   1.413       .  A
C1483      H1495   1.082       .  S
C1484      H1496   1.082       .  S
C1485      H1497   1.082       .  S
C1486      H1498   1.082       .  S
C1487      H1499   1.082       .  S
C1488      H1500   1.082       .  S
C1489      H1501   1.082       .  S
C1490      H1502   1.082       .  S
C1491      C1636   1.483       .  S
C1492      C1672   1.486       .  S
C1493      C1660   1.484       .  S
C1494      C1648   1.482       .  S
N1505      C1510   1.353       .  A
N1505      H1537   1.036       .  S
N1506      C1514   1.352       .  A
N1507      C1512   1.352   1_545  A
N1507      H1538   1.036       .  S
N1508      C1516   1.351       .  A
C1509      C1517   1.387       .  A
C1509      C1525   1.415       .  A
C1510      C1526   1.415       .  A
C1510      C1518   1.387       .  A
C1511      C1519   1.387       .  A
C1511      C1528   1.414       .  A
C1512      C1527   1.414       .  A
C1512      C1520   1.387       .  A
C1513      C1525   1.414       .  A
C1513      C1521   1.387       .  A
C1514      C1528   1.413       .  A
C1514      C1522   1.386       .  A
C1515      C1523   1.386       .  A
C1515      C1526   1.413       .  A
C1516      C1524   1.387       .  A
C1516      C1527   1.413       .  A
C1517      H1529   1.082       .  S
C1518      H1530   1.082       .  S
C1519      H1531   1.082       .  S
C1520      H1532   1.082       .  S
C1521      H1533   1.082       .  S
C1522      H1534   1.082       .  S
C1523      H1535   1.082       .  S
C1524      H1536   1.082       .  S
C1525      C1609   1.483       .  S
C1526      C1597   1.484       .  S
C1527      C1585   1.482       .  S
C1528      C1624   1.484       .  S
Zn1539     O1543   1.959       .  S
Zn1539     O1544   2.017       .  S
Zn1539     O1548   2.010       .  S
Zn1539     O1555   2.019       .  S
Zn1540     O1545   2.015       .  S
Zn1540     O1547   2.017       .  S
Zn1540     O1551   2.014       .  S
Zn1541     O1543   1.961       .  S
Zn1541     O1546   2.018       .  S
Zn1541     O1549   2.021       .  S
Zn1541     O1552   2.016       .  S
Zn1542     O1550   2.006       .  S
Zn1542     O1553   2.013       .  S
Zn1542     O1554   2.012       .  S
O1544      C1556   1.273       .  A
O1546      C1558   1.273       .  A
O1548      C1558   1.273       .  A
O1549      C1557   1.274       .  A
O1551      C1560   1.273       .  A
O1552      C1559   1.274       .  A
O1553      C1560   1.272       .  A
O1555      C1561   1.274       .  A
C1556      C1657   1.485       .  S
C1557      C1669   1.485       .  S
C1558      C1581   1.467       .  S
C1559      C1633   1.481       .  S
C1560      C1583   1.467       .  S
C1561      C1645   1.483       .  S
Zn1562     O1566   1.961       .  S
Zn1562     O1567   2.018       .  S
Zn1562     O1571   2.016       .  S
Zn1562     O1578   2.017       .  S
Zn1563     O1566   1.960       .  S
Zn1563     O1568   2.016       .  S
Zn1563     O1570   2.022       .  S
Zn1563     O1574   2.011       .  S
Zn1564     O1566   1.959       .  S
Zn1564     O1569   2.010       .  S
Zn1564     O1572   2.014       .  S
Zn1564     O1575   2.018       .  S
Zn1565     O1566   1.960       .  S
Zn1565     O1573   2.014       .  S
Zn1565     O1576   2.017       .  S
Zn1565     O1577   2.016       .  S
O1567      C1579   1.274       .  A
O1568      C1580   1.274       .  A
O1569      C1581   1.272       .  A
O1570      C1579   1.274       .  A
O1571      C1581   1.273       .  A
O1572      C1580   1.274       .  A
O1573      C1582   1.273       .  A
O1574      C1583   1.272       .  A
O1575      C1582   1.274       .  A
O1576      C1583   1.273       .  A
O1577      C1584   1.274       .  A
O1578      C1584   1.274       .  A
C1579      C1621   1.483       .  S
C1580      C1612   1.481       .  S
C1582      C1600   1.482       .  S
C1584      C1588   1.481       .  S
C1585      C1586   1.400       .  A
C1585      C1590   1.405       .  A
C1586      C1587   1.399       .  A
C1586      H1591   1.084       .  S
C1587      C1588   1.412       .  A
C1587      O1592   1.372       .  S
C1588      C1589   1.407       .  A
C1589      C1590   1.399       .  A
C1589      H1593   1.083       .  S
C1590      O1594   1.372       .  S
O1592      H1596   0.992       .  S
O1594      H1595   0.992       .  S
C1597      C1598   1.400       .  A
C1597      C1602   1.405       .  A
C1598      C1599   1.400       .  A
C1598      H1603   1.084       .  S
C1599      C1600   1.412       .  A
C1599      O1604   1.372       .  S
C1600      C1601   1.406       .  A
C1601      C1602   1.400       .  A
C1601      H1605   1.084       .  S
C1602      O1606   1.372       .  S
O1604      H1608   0.992       .  S
O1606      H1607   0.992       .  S
C1609      C1610   1.401       .  A
C1609      C1614   1.405       .  A
C1610      C1611   1.400       .  A
C1610      H1615   1.084       .  S
C1611      C1612   1.413       .  A
C1611      O1616   1.372       .  S
C1612      C1613   1.407       .  A
C1613      C1614   1.398       .  A
C1613      H1617   1.083       .  S
C1614      O1618   1.372       .  S
O1616      H1620   0.992       .  S
O1618      H1619   0.992       .  S
C1621      C1622   1.407       .  A
C1621      C1626   1.412       .  A
C1622      C1623   1.399       .  A
C1622      H1627   1.083       .  S
C1623      C1624   1.404       .  A
C1623      O1628   1.371       .  S
C1624      C1625   1.401       .  A
C1625      C1626   1.401       .  A
C1625      H1629   1.084       .  S
C1626      O1630   1.372       .  S
O1628      H1632   0.992       .  S
O1630      H1631   0.992       .  S
C1633      C1634   1.407       .  A
C1634      C1635   1.398       .  A
C1634      H1639   1.083       .  S
C1635      C1636   1.406       .  A
C1635      O1640   1.372       .  S
C1637      C1638   1.398       .  A
C1637      H1641   1.084       .  S
C1638      O1642   1.372       .  S
O1640      H1644   0.992       .  S
O1642      H1643   0.992       .  S
C1645      C1650   1.413       .  A
C1646      C1647   1.399       .  A
C1646      H1651   1.083       .  S
C1647      O1652   1.372       .  S
C1648      C1649   1.400       .  A
C1649      C1650   1.400       .  A
C1649      H1653   1.084       .  S
C1650      O1654   1.372       .  S
O1652      H1656   0.992       .  S
O1654      H1655   0.992       .  S
C1657      C1662   1.415       .  A
C1658      C1659   1.398       .  A
C1658      H1663   1.083       .  S
C1659      O1664   1.371       .  S
C1660      C1661   1.401       .  A
C1661      C1662   1.401       .  A
C1661      H1665   1.084       .  S
C1662      O1666   1.372       .  S
O1664      H1668   0.992       .  S
O1666      H1667   0.992       .  S
C1669      C1670   1.407       .  A
C1670      C1671   1.399       .  A
C1670      H1675   1.083       .  S
C1671      C1672   1.405       .  A
C1671      O1676   1.372       .  S
C1673      C1674   1.402       .  A
C1673      H1677   1.084       .  S
C1674      O1678   1.372       .  S
O1676      H1680   0.992       .  S
O1678      H1679   0.992       .  S
