geometry optimzed in LAMMPS
_audit_creation_date              2020-11-30 
_audit_creation_method            'lammps2cif' 
_symmetry_space_group_name_H-M    'P1' 
_symmetry_Int_Tables_number       1 
_symmetry_cell_setting            triclinic 
loop_ 
_symmetry_equiv_pos_as_xyz 
  x,y,z 
_cell_length_a                    34.48408901 
_cell_length_b                    34.48363465758708 
_cell_length_c                    38.45718900632243 
_cell_angle_alpha                 89.99596234739265 
_cell_angle_beta                  89.98311867844245 
_cell_angle_gamma                 120.01403712319929 
loop_ 
_atom_site_label 
_atom_site_type_symbol 
_atom_site_fract_x 
_atom_site_fract_y 
_atom_site_fract_z 
_atom_site_charge 
C1          C  0.38068100  0.26071303  0.04369640     0.87600
C2          C  0.43113525  0.29093306  0.03840154    -0.52700
C3          C  0.44203904  0.31214613  0.34025298     0.10500
C4          C  0.40124943  0.30171672  0.31738439     0.21500
C5          C  0.36081619  0.29130087  0.03849112    -0.53400
C6          C  0.37117400  0.31248142  0.34028197     0.10600
C7          C  0.36459091  0.22895810  0.01227498    -0.52900
C8          C  0.37544047  0.25067159  0.31449147     0.11200
H9          H  0.45598027  0.29296172  0.05680987     0.15700
H10         H  0.40997079  0.31907711  0.29181751     0.00600
H11         H  0.33810745  0.29347297  0.05693345     0.16000
H12         H  0.34611730  0.19266707  0.34777840     0.15800
C13         C  0.04991267  0.34529154  0.29052229     0.87600
C14         C  0.99945709  0.32506824  0.29580757    -0.52700
C15         C  0.48855863  0.33538894  0.99395133     0.10500
C16         C  0.02934855  0.36573447  0.01682650     0.21500
C17         C  0.06980761  0.39575754  0.29572726    -0.53400
C18         C  0.05944401  0.40657831  0.99393117     0.10600
C19         C  0.06597157  0.32960948  0.98861806    -0.52900
C20         C  0.05512438  0.34047693  0.01973019     0.11200
H21         H  0.47460696  0.30225809  0.27739594     0.15700
H22         H  0.02063257  0.37437982  0.04238990     0.01400
H23         H  0.09252003  0.42064732  0.27728383     0.16000
H24         H  0.08442363  0.31177790  0.98645621     0.15800
C25         C  0.13439944  0.01434875  0.04379785     0.87600
C26         C  0.10418150  0.03457281  0.03848692    -0.52700
C27         C  0.08299612  0.02424259  0.34033480     0.10500
C28         C  0.09345383  0.49388783  0.31748132     0.21500
C29         C  0.10381431  0.46388141  0.03859821    -0.53400
C30         C  0.08266538  0.45305079  0.34038746     0.10600
C31         C  0.16618344  0.03002102  0.01237888    -0.52900
C32         C  0.14449848  0.01914249  0.31459468     0.11200
H33         H  0.10212305  0.05738359  0.05688835     0.15700
H34         H  0.07611960  0.48523449  0.29191210     0.01400
H35         H  0.10161275  0.43899708  0.05704772     0.16000
H36         H  0.20247162  0.04784895  0.34788433     0.15800
C37         C  0.04975744  0.09881607  0.29053313     0.87600
C38         C  0.07006703  0.06867929  0.29586155    -0.52700
C39         C  0.05972074  0.04745992  0.99400911     0.10500
C40         C  0.02925748  0.05780155  0.01684023     0.21500
C41         C  0.99929766  0.06814415  0.29569787    -0.53400
C42         C  0.48843780  0.04695805  0.99390235     0.10600
C43         C  0.06531423  0.13056512  0.32195739    -0.52900
C44         C  0.05441650  0.10884558  0.01973845     0.11200
H45         H  0.09294071  0.06669819  0.27747345     0.15700
H46         H  0.02058961  0.04043630  0.04240502     0.01400
H47         H  0.47443003  0.06593112  0.27723449     0.16000
H48         H  0.08308681  0.16685541  0.98645733     0.15800
C49         C  0.38064611  0.01427185  0.04372290     0.87600
C50         C  0.36030622  0.46381249  0.03837744    -0.52700
C51         C  0.37064239  0.45295472  0.34022155     0.10500
C52         C  0.40111422  0.49377833  0.31739942     0.21500
C53         C  0.43110261  0.03405278  0.03854951    -0.53400
C54         C  0.44194366  0.02373088  0.34033861     0.10600
C55         C  0.36510218  0.03049209  0.01230860    -0.52900
C56         C  0.37597990  0.01967996  0.31451914     0.11200
H57         H  0.33743921  0.43894105  0.05676602     0.15700
H58         H  0.40976886  0.48509101  0.29182820     0.01400
H59         H  0.45598254  0.05668851  0.05701707     0.16000
H60         H  0.34734367  0.04901446  0.34782116     0.15800
C61         C  0.29612557  0.34512777  0.29038213     0.87600
C62         C  0.32625754  0.39558864  0.29572279    -0.52700
C63         C  0.34740797  0.40645649  0.99388878     0.10500
C64         C  0.33701002  0.36564009  0.01672472     0.21500
C65         C  0.32678643  0.32534633  0.29559052    -0.53400
C66         C  0.34790697  0.33567851  0.99381396     0.10600
C67         C  0.26431012  0.32891709  0.98844885    -0.52900
C68         C  0.28596174  0.33973991  0.01958036     0.11200
H69         H  0.32829183  0.42045461  0.27732504     0.15700
H70         H  0.35431778  0.37433546  0.04230445     0.01400
H71         H  0.32905405  0.30270960  0.27713619     0.16000
H72         H  0.22802415  0.31039402  0.98625395     0.15800
O73         O  0.19398280  0.32618368  0.19846658    -0.80700
C74         C  0.08762190  0.18107434  0.10932940     0.98600
O75         O  0.11911544  0.18445079  0.12811216    -0.69800
O76         O  0.19181894  0.25958351  0.11577889    -0.73400
Al77       Al  0.16096029  0.23225875  0.15723595     1.49000
C78         C  0.21369404  0.30075384  0.10919415     0.93900
O79         O  0.13521594  0.32645192  0.11584065    -0.79600
O80         O  0.06875209  0.26198510  0.19859088    -0.73200
Al81       Al  0.16261840  0.32291411  0.15723194     1.90100
O82         O  0.06593689  0.27567224  0.12814905    -0.72300
O83         O  0.06436717  0.18521217  0.18629944    -0.72100
O84         O  0.06833589  0.20295151  0.11590397    -0.77800
O85         O  0.13294314  0.20097517  0.19853107    -0.76000
O86         O  0.13184117  0.26302138  0.15743689    -1.12100
O87         O  0.20970438  0.27336735  0.18614920    -0.71300
C88         C  0.21568053  0.30643400  0.20423796     0.99400
C89         C  0.09403545  0.30714937  0.10931788     0.95800
Al90       Al  0.07194685  0.23388999  0.15732220     1.55600
O91         O  0.21035921  0.32887976  0.12800424    -0.75900
C92         C  0.09149796  0.17927680  0.20436305     1.00000
C93         C  0.08852968  0.30344185  0.20436402     0.94900
O94         O  0.12157639  0.33053898  0.18624169    -0.81200
O95         O  0.36177324  0.15853866  0.13563955    -0.80700
C96         C  0.21673436  0.05239382  0.22497656     0.98600
O97         O  0.22011727  0.08387111  0.20615937    -0.69800
O98         O  0.29529793  0.15655617  0.21837627    -0.73400
Al99       Al  0.26791285  0.12564786  0.17696811     1.49000
C100        C  0.33647772  0.17842367  0.22490809     0.93900
O101        O  0.36210004  0.09988624  0.21833925    -0.79600
O102        O  0.29750692  0.03330389  0.13571061    -0.73200
Al103      Al  0.35853430  0.12723339  0.17691363     1.90100
O104        O  0.31125582  0.03060187  0.20615006    -0.72300
O105        O  0.22078509  0.02901156  0.14802867    -0.72100
O106        O  0.23858263  0.03307607  0.21841400    -0.77800
O107        O  0.23657680  0.09758395  0.13571624    -0.76000
O108        O  0.29864012  0.09649199  0.17678136    -1.12100
O109        O  0.30901171  0.17433283  0.14798839    -0.71300
C110        C  0.34204139  0.18025420  0.12986675     0.99400
C111        C  0.34276764  0.05871526  0.22492842     0.95800
Al112      Al  0.26947128  0.03659811  0.17698261     1.55600
O113        O  0.36456905  0.17504065  0.20608121    -0.75900
C114        C  0.21485590  0.05613037  0.12993552     1.00000
C115        C  0.33895291  0.05303867  0.12988711     0.94900
O116        O  0.36609067  0.08611574  0.14794627    -0.81200
C117        C  0.24183924  0.31579187  0.07907750    -0.12200
C118        C  0.26271446  0.32719200  0.05231749    -0.13700
C119        C  0.24737573  0.32142490  0.23224646    -0.12200
C120        C  0.27150810  0.33293495  0.25736841    -0.13700
C121        C  0.36533606  0.03224214  0.28177312    -0.12200
C122        C  0.35588193  0.04366135  0.25502106    -0.13700
C123        C  0.35559943  0.03801048  0.10185585    -0.12200
C124        C  0.36819091  0.02646803  0.07672790    -0.13700
C125        C  0.07448727  0.15289591  0.07924441    -0.12200
C126        C  0.06504200  0.13202959  0.05249085    -0.13700
C127        C  0.06223232  0.12348691  0.25753756    -0.12200
C128        C  0.07484155  0.14761785  0.23240623    -0.13700
C129        C  0.18318065  0.03944782  0.10191535    -0.12200
C130        C  0.15904553  0.02681682  0.07679638    -0.13700
C131        C  0.18857549  0.03930265  0.25508179    -0.12200
C132        C  0.16771208  0.02984332  0.28184524    -0.13700
C133        C  0.07358942  0.32015713  0.23240483    -0.12200
C134        C  0.06211479  0.33281868  0.25752926    -0.13700
C135        C  0.06757926  0.32975005  0.05248616    -0.12200
C136        C  0.07895914  0.32026062  0.07923934    -0.13700
C137        C  0.36295926  0.22747966  0.28174071    -0.12200
C138        C  0.35156259  0.20660710  0.25498940    -0.13700
C139        C  0.35700642  0.21191343  0.10182426    -0.12200
C140        C  0.36848176  0.23604512  0.07669407    -0.13700
C141        C  0.38068080  0.26071313  0.37702977     0.87600
C142        C  0.43113510  0.29093310  0.37173476    -0.52700
C143        C  0.44203910  0.31214605  0.67358639     0.10500
C144        C  0.40124950  0.30171683  0.65071775     0.21500
C145        C  0.36081613  0.29130103  0.37182444    -0.53400
C146        C  0.37117407  0.31248146  0.67361536     0.10600
C147        C  0.36459076  0.22895812  0.34560830    -0.52900
C148        C  0.37544043  0.25067161  0.64782473     0.11200
H149        H  0.45597999  0.29296175  0.39014287     0.15700
H150        H  0.40997074  0.31907748  0.62515109     0.00600
H151        H  0.33810706  0.29347335  0.39026681     0.16000
H152        H  0.34611688  0.19266706  0.68111164     0.15800
C153        C  0.04991278  0.34529151  0.62385576     0.87600
C154        C  0.99945728  0.32506840  0.62914112    -0.52700
C155        C  0.48855855  0.33538888  0.32728442     0.10500
C156        C  0.02934856  0.36573443  0.35015969     0.21500
C157        C  0.06980762  0.39575743  0.62906076    -0.53400
C158        C  0.05944392  0.40657832  0.32726431     0.10600
C159        C  0.06597149  0.32960957  0.32195137    -0.52900
C160        C  0.05512445  0.34047705  0.35306351     0.11200
H161        H  0.47460741  0.30225875  0.61072971     0.15700
H162        H  0.02063240  0.37437963  0.37572312     0.01400
H163        H  0.09251973  0.42064681  0.61061747     0.16000
H164        H  0.08442372  0.31177816  0.31978947     0.15800
C165        C  0.13439924  0.01434860  0.37713116     0.87600
C166        C  0.10418137  0.03457265  0.37182029    -0.52700
C167        C  0.08299611  0.02424241  0.67366807     0.10500
C168        C  0.09345380  0.49388794  0.65081471     0.21500
C169        C  0.10381438  0.46388144  0.37193136    -0.53400
C170        C  0.08266538  0.45305082  0.67372084     0.10600
C171        C  0.16618330  0.03002086  0.34571217    -0.52900
C172        C  0.14449864  0.01914264  0.64792804     0.11200
H173        H  0.10212375  0.05738408  0.39022168     0.15700
H174        H  0.07611939  0.48523473  0.62524554     0.01400
H175        H  0.10161298  0.43899717  0.39038093     0.16000
H176        H  0.20247219  0.04784905  0.68121773     0.15800
C177        C  0.04975719  0.09881580  0.62386633     0.87600
C178        C  0.07006685  0.06867910  0.62919488    -0.52700
C179        C  0.05972077  0.04745990  0.32734242     0.10500
C180        C  0.02925758  0.05780151  0.35017360     0.21500
C181        C  0.99929759  0.06814412  0.62903107    -0.53400
C182        C  0.48843787  0.04695806  0.32723579     0.10600
C183        C  0.06531401  0.13056486  0.65529064    -0.52900
C184        C  0.05441664  0.10884574  0.35307175     0.11200
H185        H  0.09294057  0.06669827  0.61080709     0.15700
H186        H  0.02058950  0.04043612  0.37573855     0.01400
H187        H  0.47443046  0.06593100  0.61056769     0.16000
H188        H  0.08308771  0.16685619  0.31979068     0.15800
C189        C  0.38064609  0.01427176  0.37705631     0.87600
C190        C  0.36030629  0.46381248  0.37171082    -0.52700
C191        C  0.37064235  0.45295482  0.67355492     0.10500
C192        C  0.40111421  0.49377843  0.65073279     0.21500
C193        C  0.43110258  0.03405271  0.37188293    -0.53400
C194        C  0.44194363  0.02373089  0.67367189     0.10600
C195        C  0.36510221  0.03049209  0.34564188    -0.52900
C196        C  0.37597964  0.01967990  0.64785254     0.11200
H197        H  0.33743958  0.43894111  0.39009951     0.15700
H198        H  0.40976887  0.48509121  0.62516154     0.01400
H199        H  0.45598237  0.05668868  0.39035043     0.16000
H200        H  0.34734377  0.04901493  0.68115475     0.15800
C201        C  0.29612542  0.34512779  0.62371546     0.87600
C202        C  0.32625751  0.39558879  0.62905611    -0.52700
C203        C  0.34740819  0.40645655  0.32722205     0.10500
C204        C  0.33701024  0.36564021  0.35005803     0.21500
C205        C  0.32678637  0.32534634  0.62892390    -0.53400
C206        C  0.34790710  0.33567855  0.32714720     0.10600
C207        C  0.26431031  0.32891729  0.32178216    -0.52900
C208        C  0.28596200  0.33974000  0.35291371     0.11200
H209        H  0.32829162  0.42045476  0.61065839     0.15700
H210        H  0.35431819  0.37433577  0.37563775     0.01400
H211        H  0.32905422  0.30270970  0.61046982     0.16000
H212        H  0.22802481  0.31039421  0.31958716     0.15800
O213        O  0.19398291  0.32618367  0.53179987    -0.80700
C214        C  0.08762193  0.18107440  0.44266271     0.98600
O215        O  0.11911545  0.18445095  0.46144548    -0.69800
O216        O  0.19181897  0.25958347  0.44911218    -0.73400
Al217      Al  0.16096035  0.23225877  0.49056924     1.49000
C218        C  0.21369399  0.30075380  0.44252743     0.93900
O219        O  0.13521603  0.32645202  0.44917397    -0.79600
O220        O  0.06875219  0.26198514  0.53192429    -0.73200
Al221      Al  0.16261842  0.32291411  0.49056530     1.90100
O222        O  0.06593695  0.27567231  0.46148243    -0.72300
O223        O  0.06436727  0.18521204  0.51963266    -0.72100
O224        O  0.06833603  0.20295160  0.44923726    -0.77800
O225        O  0.13294327  0.20097523  0.53186436    -0.76000
O226        O  0.13184127  0.26302148  0.49077020    -1.12100
O227        O  0.20970462  0.27336741  0.51948246    -0.71300
C228        C  0.21568061  0.30643396  0.53757129     0.99400
C229        C  0.09403553  0.30714953  0.44265130     0.95800
Al230      Al  0.07194698  0.23389009  0.49065556     1.55600
O231        O  0.21035918  0.32887971  0.46133759    -0.75900
C232        C  0.09149809  0.17927691  0.53769642     1.00000
C233        C  0.08852968  0.30344184  0.53769741     0.94900
O234        O  0.12157637  0.33053900  0.51957513    -0.81200
O235        O  0.36177329  0.15853890  0.46897286    -0.80700
C236        C  0.21673424  0.05239382  0.55830985     0.98600
O237        O  0.22011724  0.08387121  0.53949276    -0.69800
O238        O  0.29529785  0.15655630  0.55170962    -0.73400
Al239      Al  0.26791279  0.12564787  0.51030143     1.49000
C240        C  0.33647768  0.17842363  0.55824148     0.93900
O241        O  0.36209995  0.09988620  0.55167253    -0.79600
O242        O  0.29750701  0.03330393  0.46904396    -0.73200
Al243      Al  0.35853430  0.12723341  0.51024697     1.90100
O244        O  0.31125594  0.03060203  0.53948339    -0.72300
O245        O  0.22078510  0.02901152  0.48136208    -0.72100
O246        O  0.23858265  0.03307612  0.55174738    -0.77800
O247        O  0.23657681  0.09758391  0.46904961    -0.76000
O248        O  0.29864003  0.09649195  0.51011455    -1.12100
O249        O  0.30901175  0.17433295  0.48132165    -0.71300
C250        C  0.34204147  0.18025444  0.46320007     0.99400
C251        C  0.34276764  0.05871530  0.55826176     0.95800
Al252      Al  0.26947128  0.03659811  0.51031598     1.55600
O253        O  0.36456916  0.17504080  0.53941459    -0.75900
C254        C  0.21485604  0.05613032  0.46326879     1.00000
C255        C  0.33895291  0.05303887  0.46322028     0.94900
O256        O  0.36609065  0.08611576  0.48127953    -0.81200
C257        C  0.24183935  0.31579185  0.41241080    -0.12200
C258        C  0.26271439  0.32719213  0.38565070    -0.13700
C259        C  0.24737571  0.32142486  0.56557976    -0.12200
C260        C  0.27150810  0.33293489  0.59070167    -0.13700
C261        C  0.36533599  0.03224227  0.61510655    -0.12200
C262        C  0.35588183  0.04366125  0.58835439    -0.13700
C263        C  0.35559934  0.03801040  0.43518923    -0.12200
C264        C  0.36819081  0.02646812  0.41006121    -0.13700
C265        C  0.07448734  0.15289606  0.41257769    -0.12200
C266        C  0.06504205  0.13202957  0.38582421    -0.13700
C267        C  0.06223232  0.12348690  0.59087086    -0.12200
C268        C  0.07484164  0.14761779  0.56573950    -0.13700
C269        C  0.18318061  0.03944766  0.43524865    -0.12200
C270        C  0.15904560  0.02681692  0.41012958    -0.13700
C271        C  0.18857544  0.03930286  0.58841509    -0.12200
C272        C  0.16771198  0.02984323  0.61517851    -0.13700
C273        C  0.07358939  0.32015704  0.56573812    -0.12200
C274        C  0.06211476  0.33281859  0.59086252    -0.13700
C275        C  0.06757929  0.32975004  0.38581954    -0.12200
C276        C  0.07895930  0.32026076  0.41257275    -0.13700
C277        C  0.36295929  0.22747959  0.61507395    -0.12200
C278        C  0.35156256  0.20660710  0.58832263    -0.13700
C279        C  0.35700639  0.21191353  0.43515758    -0.12200
C280        C  0.36848191  0.23604524  0.41002744    -0.13700
C281        C  0.38068080  0.26071299  0.71036303     0.87600
C282        C  0.43113516  0.29093301  0.70506816    -0.52700
C283        C  0.44203916  0.31214605  0.00691978     0.10500
C284        C  0.40124943  0.30171670  0.98405106     0.21500
C285        C  0.36081608  0.29130086  0.70515781    -0.53400
C286        C  0.37117411  0.31248146  0.00694864     0.10600
C287        C  0.36459087  0.22895814  0.67894154    -0.52900
C288        C  0.37544042  0.25067152  0.98115816     0.11200
H289        H  0.45598008  0.29296159  0.72347617     0.15700
H290        H  0.40997044  0.31907700  0.95848417     0.00600
H291        H  0.33810721  0.29347289  0.72360018     0.16000
H292        H  0.34611723  0.19266694  0.01444512     0.15800
C293        C  0.04991268  0.34529151  0.95718906     0.87600
C294        C  0.99945711  0.32506830  0.96247441    -0.52700
C295        C  0.48855864  0.33538916  0.66061802     0.10500
C296        C  0.02934872  0.36573451  0.68349326     0.21500
C297        C  0.06980752  0.39575751  0.96239402    -0.53400
C298        C  0.05944391  0.40657828  0.66059786     0.10600
C299        C  0.06597150  0.32960954  0.65528469    -0.52900
C300        C  0.05512452  0.34047698  0.68639691     0.11200
H301        H  0.47460691  0.30225807  0.94406315     0.15700
H302        H  0.02063297  0.37438006  0.70905668     0.01400
H303        H  0.09252043  0.42064716  0.94395100     0.16000
H304        H  0.08442356  0.31177787  0.65312270     0.15800
C305        C  0.13439935  0.01434848  0.71046449     0.87600
C306        C  0.10418144  0.03457258  0.70515353    -0.52700
C307        C  0.08299616  0.02424254  0.00700147     0.10500
C308        C  0.09345384  0.49388785  0.98414812     0.21500
C309        C  0.10381439  0.46388140  0.70526474    -0.53400
C310        C  0.08266542  0.45305083  0.00705434     0.10600
C311        C  0.16618343  0.03002093  0.67904552    -0.52900
C312        C  0.14449868  0.01914263  0.98126143     0.11200
H313        H  0.10212348  0.05738353  0.72355485     0.15700
H314        H  0.07611977  0.48523451  0.95857911     0.01400
H315        H  0.10161239  0.43899712  0.72371463     0.16000
H316        H  0.20247213  0.04784886  0.01455105     0.15800
C317        C  0.04975732  0.09881590  0.95719973     0.87600
C318        C  0.07006697  0.06867916  0.96252815    -0.52700
C319        C  0.05972062  0.04745977  0.66067579     0.10500
C320        C  0.02925759  0.05780153  0.68350688     0.21500
C321        C  0.99929763  0.06814418  0.96236440    -0.53400
C322        C  0.48843788  0.04695800  0.66056906     0.10600
C323        C  0.06531407  0.13056490  0.98862406    -0.52900
C324        C  0.05441648  0.10884555  0.68640507     0.11200
H325        H  0.09294075  0.06669829  0.94414040     0.15700
H326        H  0.02058989  0.04043629  0.70907172     0.01400
H327        H  0.47443003  0.06593123  0.94390104     0.16000
H328        H  0.08308732  0.16685530  0.65312393     0.15800
C329        C  0.38064607  0.01427187  0.71038965     0.87600
C330        C  0.36030619  0.46381248  0.70504418    -0.52700
C331        C  0.37064238  0.45295472  0.00688820     0.10500
C332        C  0.40111407  0.49377836  0.98406605     0.21500
C333        C  0.43110265  0.03405283  0.70521622    -0.53400
C334        C  0.44194361  0.02373080  0.00700521     0.10600
C335        C  0.36510213  0.03049206  0.67897529    -0.52900
C336        C  0.37597986  0.01968001  0.98118583     0.11200
H337        H  0.33743950  0.43894102  0.72343278     0.15700
H338        H  0.40976849  0.48509107  0.95849455     0.01400
H339        H  0.45598253  0.05668858  0.72368372     0.16000
H340        H  0.34734389  0.04901507  0.01448814     0.15800
C341        C  0.29612543  0.34512768  0.95704880     0.87600
C342        C  0.32625749  0.39558862  0.96238945    -0.52700
C343        C  0.34740806  0.40645662  0.66055543     0.10500
C344        C  0.33701019  0.36564018  0.68339143     0.21500
C345        C  0.32678643  0.32534637  0.96225726    -0.53400
C346        C  0.34790697  0.33567850  0.66048061     0.10600
C347        C  0.26431019  0.32891708  0.65511554    -0.52900
C348        C  0.28596191  0.33973995  0.68624703     0.11200
H349        H  0.32829155  0.42045455  0.94399180     0.15700
H350        H  0.35431791  0.37433554  0.70897114     0.01400
H351        H  0.32905415  0.30270964  0.94380319     0.16000
H352        H  0.22802442  0.31039449  0.65292072     0.15800
O353        O  0.19398283  0.32618356  0.86513325    -0.80700
C354        C  0.08762197  0.18107442  0.77599604     0.98600
O355        O  0.11911547  0.18445083  0.79477885    -0.69800
O356        O  0.19181889  0.25958347  0.78244560    -0.73400
Al357      Al  0.16096033  0.23225878  0.82390259     1.49000
C358        C  0.21369392  0.30075380  0.77586081     0.93900
O359        O  0.13521603  0.32645200  0.78250732    -0.79600
O360        O  0.06875216  0.26198508  0.86525761    -0.73200
Al361      Al  0.16261841  0.32291406  0.82389860     1.90100
O362        O  0.06593692  0.27567238  0.79481575    -0.72300
O363        O  0.06436735  0.18521217  0.85296610    -0.72100
O364        O  0.06833590  0.20295152  0.78257061    -0.77800
O365        O  0.13294320  0.20097531  0.86519758    -0.76000
O366        O  0.13184127  0.26302136  0.82410342    -1.12100
O367        O  0.20970453  0.27336746  0.85281580    -0.71300
C368        C  0.21568060  0.30643398  0.87090466     0.99400
C369        C  0.09403556  0.30714940  0.77598453     0.95800
Al370      Al  0.07194699  0.23389001  0.82398891     1.55600
O371        O  0.21035924  0.32887971  0.79467102    -0.75900
C372        C  0.09149807  0.17927676  0.87102961     1.00000
C373        C  0.08852957  0.30344183  0.87103065     0.94900
O374        O  0.12157644  0.33053897  0.85290847    -0.81200
O375        O  0.36177332  0.15853883  0.80230627    -0.80700
C376        C  0.21673426  0.05239390  0.89164319     0.98600
O377        O  0.22011735  0.08387128  0.87282605    -0.69800
O378        O  0.29529800  0.15655640  0.88504298    -0.73400
Al379      Al  0.26791282  0.12564793  0.84363479     1.49000
C380        C  0.33647774  0.17842365  0.89157485     0.93900
O381        O  0.36209991  0.09988618  0.88500590    -0.79600
O382        O  0.29750688  0.03330387  0.80237718    -0.73200
Al383      Al  0.35853430  0.12723338  0.84358028     1.90100
O384        O  0.31125581  0.03060186  0.87281680    -0.72300
O385        O  0.22078502  0.02901155  0.81469530    -0.72100
O386        O  0.23858245  0.03307610  0.88508063    -0.77800
O387        O  0.23657678  0.09758396  0.80238292    -0.76000
O388        O  0.29864010  0.09649202  0.84344794    -1.12100
O389        O  0.30901170  0.17433275  0.81465499    -0.71300
C390        C  0.34204144  0.18025426  0.79653340     0.99400
C391        C  0.34276764  0.05871522  0.89159507     0.95800
Al392      Al  0.26947123  0.03659813  0.84364927     1.55600
O393        O  0.36456909  0.17504059  0.87274796    -0.75900
C394        C  0.21485587  0.05613040  0.79660218     1.00000
C395        C  0.33895284  0.05303876  0.79655365     0.94900
O396        O  0.36609060  0.08611566  0.81461292    -0.81200
C397        C  0.24183938  0.31579192  0.74574422    -0.12200
C398        C  0.26271440  0.32719202  0.71898408    -0.13700
C399        C  0.24737576  0.32142489  0.89891314    -0.12200
C400        C  0.27150823  0.33293493  0.92403500    -0.13700
C401        C  0.36533601  0.03224212  0.94843980    -0.12200
C402        C  0.35588176  0.04366114  0.92168769    -0.13700
C403        C  0.35559941  0.03801049  0.76852257    -0.12200
C404        C  0.36819076  0.02646798  0.74339462    -0.13700
C405        C  0.07448728  0.15289600  0.74591106    -0.12200
C406        C  0.06504213  0.13202957  0.71915754    -0.13700
C407        C  0.06223224  0.12348682  0.92420417    -0.12200
C408        C  0.07484153  0.14761784  0.89907287    -0.13700
C409        C  0.18318065  0.03944789  0.76858201    -0.12200
C410        C  0.15904558  0.02681681  0.74346300    -0.13700
C411        C  0.18857549  0.03930275  0.92174848    -0.12200
C412        C  0.16771219  0.02984334  0.94851198    -0.13700
C413        C  0.07358948  0.32015709  0.89907156    -0.12200
C414        C  0.06211479  0.33281865  0.92419594    -0.13700
C415        C  0.06757923  0.32975002  0.71915298    -0.12200
C416        C  0.07895934  0.32026069  0.74590608    -0.13700
C417        C  0.36295933  0.22747958  0.94840739    -0.12200
C418        C  0.35156244  0.20660703  0.92165610    -0.13700
C419        C  0.35700651  0.21191341  0.76849087    -0.12200
C420        C  0.36848173  0.23604512  0.74336071    -0.13700
C421        C  0.38068093  0.76071307  0.04369643     0.87600
C422        C  0.43113523  0.79093304  0.03840154    -0.52700
C423        C  0.44203911  0.81214620  0.34025297     0.10500
C424        C  0.40124944  0.80171672  0.31738435     0.21500
C425        C  0.36081616  0.79130093  0.03849112    -0.53400
C426        C  0.37117410  0.81248143  0.34028188     0.10600
C427        C  0.36459090  0.72895815  0.01227501    -0.52900
C428        C  0.37544041  0.75067157  0.31449143     0.11200
H429        H  0.45598027  0.79296177  0.05680984     0.15700
H430        H  0.40997053  0.81907710  0.29181747     0.00600
H431        H  0.33810733  0.79347300  0.05693349     0.16000
H432        H  0.34611724  0.69266705  0.34777838     0.15800
C433        C  0.04991263  0.84529154  0.29052228     0.87600
C434        C  0.99945702  0.82506820  0.29580761    -0.52700
C435        C  0.48855858  0.83538892  0.99395131     0.10500
C436        C  0.02934869  0.86573451  0.01682653     0.21500
C437        C  0.06980760  0.89575756  0.29572725    -0.53400
C438        C  0.05944392  0.90657833  0.99393118     0.10600
C439        C  0.06597147  0.82960947  0.98861802    -0.52900
C440        C  0.05512446  0.84047697  0.01973018     0.11200
H441        H  0.47460687  0.80225814  0.27739595     0.15700
H442        H  0.02063284  0.87437989  0.04238996     0.01400
H443        H  0.09251991  0.92064730  0.27728378     0.16000
H444        H  0.08442375  0.81177805  0.98645613     0.15800
C445        C  0.13439946  0.51434861  0.04379784     0.87600
C446        C  0.10418148  0.53457270  0.03848694    -0.52700
C447        C  0.08299611  0.52424244  0.34033473     0.10500
C448        C  0.09345380  0.99388796  0.31748133     0.21500
C449        C  0.10381442  0.96388151  0.03859812    -0.53400
C450        C  0.08266547  0.95305094  0.34038748     0.10600
C451        C  0.16618350  0.53002094  0.01237885    -0.52900
C452        C  0.14449860  0.51914273  0.31459466     0.11200
H453        H  0.10212346  0.55738360  0.05688822     0.15700
H454        H  0.07611980  0.98523464  0.29191211     0.01400
H455        H  0.10161242  0.93899726  0.05704768     0.16000
H456        H  0.20247208  0.54784909  0.34788431     0.15800
C457        C  0.04975746  0.59881606  0.29053311     0.87600
C458        C  0.07006703  0.56867930  0.29586154    -0.52700
C459        C  0.05972057  0.54745984  0.99400905     0.10500
C460        C  0.02925755  0.55780163  0.01684020     0.21500
C461        C  0.99929768  0.56814419  0.29569788    -0.53400
C462        C  0.48843789  0.54695811  0.99390238     0.10600
C463        C  0.06531426  0.63056508  0.32195734    -0.52900
C464        C  0.05441665  0.60884578  0.01973836     0.11200
H465        H  0.09294044  0.56669797  0.27747328     0.15700
H466        H  0.02058978  0.54043638  0.04240501     0.01400
H467        H  0.47443014  0.56593126  0.27723456     0.16000
H468        H  0.08308775  0.66685601  0.98645728     0.15800
C469        C  0.38064611  0.51427185  0.04372293     0.87600
C470        C  0.36030626  0.96381248  0.03837744    -0.52700
C471        C  0.37064238  0.95295466  0.34022161     0.10500
C472        C  0.40111418  0.99377832  0.31739947     0.21500
C473        C  0.43110264  0.53405283  0.03854948    -0.53400
C474        C  0.44194364  0.52373094  0.34033856     0.10600
C475        C  0.36510214  0.53049203  0.01230864    -0.52900
C476        C  0.37597991  0.51967993  0.31451916     0.11200
H477        H  0.33743904  0.93894102  0.05676595     0.15700
H478        H  0.40976873  0.98509094  0.29182822     0.01400
H479        H  0.45598260  0.55668861  0.05701701     0.16000
H480        H  0.34734368  0.54901446  0.34782132     0.15800
C481        C  0.29612562  0.84512773  0.29038208     0.87600
C482        C  0.32625759  0.89558865  0.29572278    -0.52700
C483        C  0.34740797  0.90645649  0.99388876     0.10500
C484        C  0.33701011  0.86564018  0.01672473     0.21500
C485        C  0.32678642  0.82534630  0.29559049    -0.53400
C486        C  0.34790698  0.83567856  0.99381397     0.10600
C487        C  0.26431012  0.82891712  0.98844887    -0.52900
C488        C  0.28596177  0.83973992  0.01958037     0.11200
H489        H  0.32829170  0.92045465  0.27732512     0.15700
H490        H  0.35431807  0.87433595  0.04230443     0.01400
H491        H  0.32905429  0.80270961  0.27713604     0.16000
H492        H  0.22802410  0.81039398  0.98625395     0.15800
O493        O  0.19398288  0.82618366  0.19846655    -0.80700
C494        C  0.08762197  0.68107436  0.10932940     0.98600
O495        O  0.11911553  0.68445086  0.12811218    -0.69800
O496        O  0.19181904  0.75958353  0.11577895    -0.73400
Al497      Al  0.16096035  0.73225878  0.15723594     1.49000
C498        C  0.21369403  0.80075385  0.10919413     0.93900
O499        O  0.13521606  0.82645199  0.11584067    -0.79600
O500        O  0.06875212  0.76198512  0.19859096    -0.73200
Al501      Al  0.16261846  0.82291412  0.15723194     1.90100
O502        O  0.06593687  0.77567228  0.12814906    -0.72300
O503        O  0.06436738  0.68521223  0.18629951    -0.72100
O504        O  0.06833589  0.70295145  0.11590398    -0.77800
O505        O  0.13294321  0.70097523  0.19853103    -0.76000
O506        O  0.13184130  0.76302140  0.15743684    -1.12100
O507        O  0.20970442  0.77336738  0.18614914    -0.71300
C508        C  0.21568060  0.80643401  0.20423794     0.99400
C509        C  0.09403553  0.80714942  0.10931789     0.95800
Al510      Al  0.07194698  0.73389000  0.15732224     1.55600
O511        O  0.21035928  0.82887978  0.12800424    -0.75900
C512        C  0.09149809  0.67927680  0.20436306     1.00000
C513        C  0.08852966  0.80344188  0.20436400     0.94900
O514        O  0.12157647  0.83053900  0.18624173    -0.81200
O515        O  0.36177324  0.65853869  0.13563959    -0.80700
C516        C  0.21673417  0.55239372  0.22497652     0.98600
O517        O  0.22011722  0.58387111  0.20615943    -0.69800
O518        O  0.29529791  0.65655617  0.21837630    -0.73400
Al519      Al  0.26791278  0.62564780  0.17696812     1.49000
C520        C  0.33647768  0.67842362  0.22490811     0.93900
O521        O  0.36209991  0.59988612  0.21833920    -0.79600
O522        O  0.29750687  0.53330387  0.13571058    -0.73200
Al523      Al  0.35853428  0.62723335  0.17691363     1.90100
O524        O  0.31125581  0.53060194  0.20615010    -0.72300
O525        O  0.22078496  0.52901141  0.14802868    -0.72100
O526        O  0.23858255  0.53307606  0.21841404    -0.77800
O527        O  0.23657679  0.59758396  0.13571625    -0.76000
O528        O  0.29864008  0.59649191  0.17678135    -1.12100
O529        O  0.30901173  0.67433279  0.14798835    -0.71300
C530        C  0.34204137  0.68025416  0.12986672     0.99400
C531        C  0.34276771  0.55871521  0.22492834     0.95800
Al532      Al  0.26947124  0.53659806  0.17698263     1.55600
O533        O  0.36456900  0.67504062  0.20608119    -0.75900
C534        C  0.21485582  0.55613032  0.12993555     1.00000
C535        C  0.33895286  0.55303869  0.12988708     0.94900
O536        O  0.36609063  0.58611575  0.14794623    -0.81200
C537        C  0.24183937  0.81579191  0.07907755    -0.12200
C538        C  0.26271436  0.82719201  0.05231744    -0.13700
C539        C  0.24737576  0.82142499  0.23224647    -0.12200
C540        C  0.27150818  0.83293496  0.25736839    -0.13700
C541        C  0.36533609  0.53224216  0.28177314    -0.12200
C542        C  0.35588181  0.54366124  0.25502106    -0.13700
C543        C  0.35559942  0.53801050  0.10185589    -0.12200
C544        C  0.36819078  0.52646802  0.07672790    -0.13700
C545        C  0.07448728  0.65289595  0.07924439    -0.12200
C546        C  0.06504218  0.63202962  0.05249084    -0.13700
C547        C  0.06223229  0.62348687  0.25753752    -0.12200
C548        C  0.07484161  0.64761787  0.23240624    -0.13700
C549        C  0.18318054  0.53944775  0.10191538    -0.12200
C550        C  0.15904551  0.52681680  0.07679635    -0.13700
C551        C  0.18857546  0.53930274  0.25508177    -0.12200
C552        C  0.16771203  0.52984313  0.28184520    -0.13700
C553        C  0.07358946  0.82015713  0.23240483    -0.12200
C554        C  0.06211479  0.83281870  0.25752922    -0.13700
C555        C  0.06757921  0.82975006  0.05248620    -0.12200
C556        C  0.07895922  0.82026068  0.07923934    -0.13700
C557        C  0.36295924  0.72747964  0.28174067    -0.12200
C558        C  0.35156253  0.70660705  0.25498939    -0.13700
C559        C  0.35700638  0.71191340  0.10182428    -0.12200
C560        C  0.36848172  0.73604513  0.07669412    -0.13700
C561        C  0.38068093  0.76071311  0.37702971     0.87600
C562        C  0.43113523  0.79093314  0.37173475    -0.52700
C563        C  0.44203901  0.81214604  0.67358640     0.10500
C564        C  0.40124943  0.80171680  0.65071777     0.21500
C565        C  0.36081618  0.79130096  0.37182440    -0.53400
C566        C  0.37117401  0.81248145  0.67361545     0.10600
C567        C  0.36459086  0.72895810  0.34560827    -0.52900
C568        C  0.37544050  0.75067162  0.64782475     0.11200
H569        H  0.45598015  0.79296186  0.39014287     0.15700
H570        H  0.40997091  0.81907747  0.62515112     0.00600
H571        H  0.33810767  0.79347349  0.39026677     0.16000
H572        H  0.34611732  0.69266709  0.68111166     0.15800
C573        C  0.04991279  0.84529152  0.62385577     0.87600
C574        C  0.99945723  0.82506833  0.62914105    -0.52700
C575        C  0.48855856  0.83538894  0.32728447     0.10500
C576        C  0.02934854  0.86573442  0.35015971     0.21500
C577        C  0.06980759  0.89575743  0.62906079    -0.53400
C578        C  0.05944402  0.90657837  0.32726433     0.10600
C579        C  0.06597154  0.82960954  0.32195132    -0.52900
C580        C  0.05512447  0.84047699  0.35306348     0.11200
H581        H  0.47460757  0.80225888  0.61072961     0.15700
H582        H  0.02063278  0.87437993  0.37572315     0.01400
H583        H  0.09251967  0.92064685  0.61061751     0.16000
H584        H  0.08442362  0.81177801  0.31978941     0.15800
C585        C  0.13439936  0.51434861  0.37713112     0.87600
C586        C  0.10418146  0.53457270  0.37182022    -0.52700
C587        C  0.08299600  0.52424237  0.67366808     0.10500
C588        C  0.09345384  0.99388786  0.65081478     0.21500
C589        C  0.10381438  0.96388152  0.37193141    -0.53400
C590        C  0.08266541  0.95305074  0.67372091     0.10600
C591        C  0.16618334  0.53002090  0.34571214    -0.52900
C592        C  0.14449852  0.51914256  0.64792802     0.11200
H593        H  0.10212298  0.55738340  0.39022170     0.15700
H594        H  0.07611939  0.98523463  0.62524563     0.01400
H595        H  0.10161290  0.93899725  0.39038096     0.16000
H596        H  0.20247170  0.54784899  0.68121782     0.15800
C597        C  0.04975725  0.59881582  0.62386640     0.87600
C598        C  0.07006701  0.56867918  0.62919491    -0.52700
C599        C  0.05972070  0.54745982  0.32734240     0.10500
C600        C  0.02925752  0.55780151  0.35017361     0.21500
C601        C  0.99929759  0.56814409  0.62903110    -0.53400
C602        C  0.48843788  0.54695809  0.32723584     0.10600
C603        C  0.06531404  0.63056489  0.65529067    -0.52900
C604        C  0.05441665  0.60884574  0.35307172     0.11200
H605        H  0.09294066  0.56669826  0.61080713     0.15700
H606        H  0.02058959  0.54043616  0.37573858     0.01400
H607        H  0.47443001  0.56593103  0.61056766     0.16000
H608        H  0.08308727  0.66685613  0.31979062     0.15800
C609        C  0.38064616  0.51427182  0.37705630     0.87600
C610        C  0.36030621  0.96381241  0.37171084    -0.52700
C611        C  0.37064231  0.95295477  0.67355492     0.10500
C612        C  0.40111411  0.99377840  0.65073278     0.21500
C613        C  0.43110262  0.53405273  0.37188289    -0.53400
C614        C  0.44194374  0.52373082  0.67367195     0.10600
C615        C  0.36510224  0.53049207  0.34564194    -0.52900
C616        C  0.37597970  0.51967991  0.64785250     0.11200
H617        H  0.33743903  0.93894100  0.39009944     0.15700
H618        H  0.40976873  0.98509122  0.62516151     0.01400
H619        H  0.45598252  0.55668870  0.39035026     0.16000
H620        H  0.34734391  0.54901500  0.68115464     0.15800
C621        C  0.29612551  0.84512784  0.62371548     0.87600
C622        C  0.32625746  0.89558872  0.62905614    -0.52700
C623        C  0.34740806  0.90645653  0.32722205     0.10500
C624        C  0.33701018  0.86564021  0.35005799     0.21500
C625        C  0.32678640  0.82534635  0.62892392    -0.53400
C626        C  0.34790704  0.83567847  0.32714712     0.10600
C627        C  0.26431038  0.82891727  0.32178216    -0.52900
C628        C  0.28596200  0.83974005  0.35291368     0.11200
H629        H  0.32829165  0.92045464  0.61065838     0.15700
H630        H  0.35431792  0.87433574  0.37563767     0.01400
H631        H  0.32905399  0.80270976  0.61046986     0.16000
H632        H  0.22802480  0.81039428  0.31958718     0.15800
O633        O  0.19398288  0.82618371  0.53179989    -0.80700
C634        C  0.08762199  0.68107452  0.44266269     0.98600
O635        O  0.11911545  0.68445091  0.46144553    -0.69800
O636        O  0.19181895  0.75958348  0.44911222    -0.73400
Al637      Al  0.16096035  0.73225877  0.49056927     1.49000
C638        C  0.21369409  0.80075382  0.44252748     0.93900
O639        O  0.13521587  0.82645194  0.44917399    -0.79600
O640        O  0.06875218  0.76198516  0.53192433    -0.73200
Al641      Al  0.16261839  0.82291410  0.49056527     1.90100
O642        O  0.06593691  0.77567230  0.46148240    -0.72300
O643        O  0.06436720  0.68521204  0.51963265    -0.72100
O644        O  0.06833587  0.70295157  0.44923731    -0.77800
O645        O  0.13294319  0.70097526  0.53186437    -0.76000
O646        O  0.13184128  0.76302147  0.49077016    -1.12100
O647        O  0.20970454  0.77336743  0.51948251    -0.71300
C648        C  0.21568055  0.80643398  0.53757131     0.99400
C649        C  0.09403540  0.80714945  0.44265127     0.95800
Al650      Al  0.07194697  0.73389011  0.49065555     1.55600
O651        O  0.21035913  0.82887971  0.46133751    -0.75900
C652        C  0.09149802  0.67927694  0.53769642     1.00000
C653        C  0.08852969  0.80344186  0.53769743     0.94900
O654        O  0.12157636  0.83053902  0.51957509    -0.81200
O655        O  0.36177338  0.65853886  0.46897284    -0.80700
C656        C  0.21673433  0.55239386  0.55830988     0.98600
O657        O  0.22011726  0.58387115  0.53949274    -0.69800
O658        O  0.29529794  0.65655634  0.55170958    -0.73400
Al659      Al  0.26791284  0.62564787  0.51030142     1.49000
C660        C  0.33647771  0.67842365  0.55824148     0.93900
O661        O  0.36209997  0.59988620  0.55167258    -0.79600
O662        O  0.29750700  0.53330391  0.46904390    -0.73200
Al663      Al  0.35853429  0.62723340  0.51024699     1.90100
O664        O  0.31125594  0.53060205  0.53948343    -0.72300
O665        O  0.22078512  0.52901159  0.48136200    -0.72100
O666        O  0.23858268  0.53307617  0.55174733    -0.77800
O667        O  0.23657680  0.59758395  0.46904956    -0.76000
O668        O  0.29864010  0.59649196  0.51011452    -1.12100
O669        O  0.30901174  0.67433297  0.48132165    -0.71300
C670        C  0.34204153  0.68025443  0.46320008     0.99400
C671        C  0.34276760  0.55871531  0.55826182     0.95800
Al672      Al  0.26947133  0.53659815  0.51031594     1.55600
O673        O  0.36456910  0.67504079  0.53941459    -0.75900
C674        C  0.21485590  0.55613036  0.46326883     1.00000
C675        C  0.33895295  0.55303880  0.46322035     0.94900
O676        O  0.36609071  0.58611578  0.48127960    -0.81200
C677        C  0.24183935  0.81579194  0.41241080    -0.12200
C678        C  0.26271451  0.82719216  0.38565075    -0.13700
C679        C  0.24737571  0.82142488  0.56557973    -0.12200
C680        C  0.27150803  0.83293489  0.59070168    -0.13700
C681        C  0.36533603  0.53224230  0.61510653    -0.12200
C682        C  0.35588185  0.54366126  0.58835438    -0.13700
C683        C  0.35559940  0.53801032  0.43518928    -0.12200
C684        C  0.36819089  0.52646810  0.41006123    -0.13700
C685        C  0.07448726  0.65289597  0.41257774    -0.12200
C686        C  0.06504199  0.63202958  0.38582420    -0.13700
C687        C  0.06223233  0.62348691  0.59087088    -0.12200
C688        C  0.07484157  0.64761781  0.56573951    -0.13700
C689        C  0.18318061  0.53944770  0.43524863    -0.12200
C690        C  0.15904557  0.52681692  0.41012959    -0.13700
C691        C  0.18857549  0.53930284  0.58841514    -0.12200
C692        C  0.16771201  0.52984322  0.61517856    -0.13700
C693        C  0.07358948  0.82015703  0.56573823    -0.12200
C694        C  0.06211481  0.83281866  0.59086257    -0.13700
C695        C  0.06757935  0.82975003  0.38581949    -0.12200
C696        C  0.07895903  0.82026050  0.41257271    -0.13700
C697        C  0.36295924  0.72747962  0.61507395    -0.12200
C698        C  0.35156257  0.70660715  0.58832261    -0.13700
C699        C  0.35700649  0.71191353  0.43515758    -0.12200
C700        C  0.36848182  0.73604526  0.41002744    -0.13700
C701        C  0.38068075  0.76071300  0.71036310     0.87600
C702        C  0.43113503  0.79093301  0.70506818    -0.52700
C703        C  0.44203915  0.81214599  0.00691976     0.10500
C704        C  0.40124946  0.80171677  0.98405108     0.21500
C705        C  0.36081606  0.79130086  0.70515787    -0.53400
C706        C  0.37117401  0.81248143  0.00694862     0.10600
C707        C  0.36459081  0.72895817  0.67894157    -0.52900
C708        C  0.37544044  0.75067161  0.98115819     0.11200
H709        H  0.45597994  0.79296149  0.72347620     0.15700
H710        H  0.40997046  0.81907696  0.95848413     0.00600
H711        H  0.33810671  0.79347271  0.72360020     0.16000
H712        H  0.34611690  0.69266707  0.01444518     0.15800
C713        C  0.04991269  0.84529149  0.95718904     0.87600
C714        C  0.99945719  0.82506834  0.96247442    -0.52700
C715        C  0.48855869  0.83538915  0.66061800     0.10500
C716        C  0.02934862  0.86573454  0.68349325     0.21500
C717        C  0.06980754  0.89575750  0.96239406    -0.53400
C718        C  0.05944386  0.90657828  0.66059788     0.10600
C719        C  0.06597161  0.82960963  0.65528470    -0.52900
C720        C  0.05512438  0.84047694  0.68639691     0.11200
H721        H  0.47460700  0.80225815  0.94406305     0.15700
H722        H  0.02063247  0.87437985  0.70905665     0.01400
H723        H  0.09251994  0.92064702  0.94395095     0.16000
H724        H  0.08442365  0.81177797  0.65312272     0.15800
C725        C  0.13439925  0.51434848  0.71046447     0.87600
C726        C  0.10418141  0.53457259  0.70515352    -0.52700
C727        C  0.08299612  0.52424249  0.00700145     0.10500
C728        C  0.09345387  0.99388792  0.98414806     0.21500
C729        C  0.10381436  0.96388133  0.70526478    -0.53400
C730        C  0.08266538  0.95305094  0.00705423     0.10600
C731        C  0.16618332  0.53002088  0.67904555    -0.52900
C732        C  0.14449870  0.51914268  0.98126145     0.11200
H733        H  0.10212345  0.55738349  0.72355488     0.15700
H734        H  0.07611961  0.98523463  0.95857900     0.01400
H735        H  0.10161278  0.93899694  0.72371457     0.16000
H736        H  0.20247228  0.54784908  0.01455098     0.15800
C737        C  0.04975728  0.59881603  0.95719969     0.87600
C738        C  0.07006682  0.56867920  0.96252813    -0.52700
C739        C  0.05972070  0.54745983  0.66067582     0.10500
C740        C  0.02925755  0.55780151  0.68350691     0.21500
C741        C  0.99929760  0.56814425  0.96236438    -0.53400
C742        C  0.48843789  0.54695800  0.66056896     0.10600
C743        C  0.06531421  0.63056506  0.98862401    -0.52900
C744        C  0.05441649  0.60884556  0.68640510     0.11200
H745        H  0.09294045  0.56669828  0.94414026     0.15700
H746        H  0.02058957  0.54043628  0.70907174     0.01400
H747        H  0.47443051  0.56593116  0.94390102     0.16000
H748        H  0.08308724  0.66685533  0.65312395     0.15800
C749        C  0.38064614  0.51427187  0.71038961     0.87600
C750        C  0.36030613  0.96381245  0.70504419    -0.52700
C751        C  0.37064226  0.95295469  0.00688817     0.10500
C752        C  0.40111414  0.99377829  0.98406607     0.21500
C753        C  0.43110270  0.53405282  0.70521623    -0.53400
C754        C  0.44194361  0.52373086  0.00700515     0.10600
C755        C  0.36510218  0.53049208  0.67897523    -0.52900
C756        C  0.37597978  0.51967999  0.98118586     0.11200
H757        H  0.33743950  0.93894099  0.72343281     0.15700
H758        H  0.40976869  0.98509098  0.95849465     0.01400
H759        H  0.45598247  0.55668860  0.72368383     0.16000
H760        H  0.34734385  0.54901497  0.01448818     0.15800
C761        C  0.29612535  0.84512771  0.95704883     0.87600
C762        C  0.32625746  0.89558862  0.96238946    -0.52700
C763        C  0.34740814  0.90645658  0.66055547     0.10500
C764        C  0.33701023  0.86564024  0.68339152     0.21500
C765        C  0.32678639  0.82534641  0.96225727    -0.53400
C766        C  0.34790716  0.83567870  0.66048069     0.10600
C767        C  0.26431031  0.82891725  0.65511553    -0.52900
C768        C  0.28596201  0.83973995  0.68624711     0.11200
H769        H  0.32829159  0.92045460  0.94399180     0.15700
H770        H  0.35431831  0.87433596  0.70897126     0.01400
H771        H  0.32905419  0.80270971  0.94380323     0.16000
H772        H  0.22802479  0.81039399  0.65292067     0.15800
O773        O  0.19398284  0.82618362  0.86513323    -0.80700
C774        C  0.08762193  0.68107443  0.77599607     0.98600
O775        O  0.11911542  0.68445088  0.79477882    -0.69800
O776        O  0.19181888  0.75958350  0.78244556    -0.73400
Al777      Al  0.16096035  0.73225880  0.82390259     1.49000
C778        C  0.21369393  0.80075384  0.77586082     0.93900
O779        O  0.13521601  0.82645201  0.78250735    -0.79600
O780        O  0.06875225  0.76198509  0.86525766    -0.73200
Al781      Al  0.16261841  0.82291411  0.82389863     1.90100
O782        O  0.06593693  0.77567235  0.79481583    -0.72300
O783        O  0.06436726  0.68521217  0.85296612    -0.72100
O784        O  0.06833596  0.70295157  0.78257071    -0.77800
O785        O  0.13294326  0.70097527  0.86519763    -0.76000
O786        O  0.13184121  0.76302140  0.82410348    -1.12100
O787        O  0.20970459  0.77336745  0.85281585    -0.71300
C788        C  0.21568063  0.80643401  0.87090465     0.99400
C789        C  0.09403552  0.80714939  0.77598460     0.95800
Al790      Al  0.07194692  0.73389001  0.82398890     1.55600
O791        O  0.21035918  0.82887973  0.79467103    -0.75900
C792        C  0.09149807  0.67927679  0.87102965     1.00000
C793        C  0.08852962  0.80344186  0.87103071     0.94900
O794        O  0.12157642  0.83053902  0.85290852    -0.81200
O795        O  0.36177330  0.65853888  0.80230629    -0.80700
C796        C  0.21673423  0.55239371  0.89164314     0.98600
O797        O  0.22011732  0.58387122  0.87282608    -0.69800
O798        O  0.29529783  0.65655632  0.88504298    -0.73400
Al799      Al  0.26791279  0.62564790  0.84363480     1.49000
C800        C  0.33647765  0.67842365  0.89157482     0.93900
O801        O  0.36209984  0.59988610  0.88500588    -0.79600
O802        O  0.29750689  0.53330386  0.80237722    -0.73200
Al803      Al  0.35853430  0.62723338  0.84358029     1.90100
O804        O  0.31125589  0.53060191  0.87281668    -0.72300
O805        O  0.22078505  0.52901137  0.81469535    -0.72100
O806        O  0.23858255  0.53307593  0.88508069    -0.77800
O807        O  0.23657680  0.59758395  0.80238297    -0.76000
O808        O  0.29864003  0.59649196  0.84344794    -1.12100
O809        O  0.30901167  0.67433277  0.81465500    -0.71300
C810        C  0.34204137  0.68025428  0.79653339     0.99400
C811        C  0.34276758  0.55871518  0.89159508     0.95800
Al812      Al  0.26947123  0.53659803  0.84364929     1.55600
O813        O  0.36456908  0.67504062  0.87274799    -0.75900
C814        C  0.21485607  0.55613031  0.79660212     1.00000
C815        C  0.33895291  0.55303879  0.79655364     0.94900
O816        O  0.36609072  0.58611575  0.81461287    -0.81200
C817        C  0.24183932  0.81579191  0.74574416    -0.12200
C818        C  0.26271439  0.82719204  0.71898406    -0.13700
C819        C  0.24737577  0.82142485  0.89891315    -0.12200
C820        C  0.27150822  0.83293495  0.92403502    -0.13700
C821        C  0.36533599  0.53224214  0.94843985    -0.12200
C822        C  0.35588182  0.54366116  0.92168770    -0.13700
C823        C  0.35559952  0.53801058  0.76852250    -0.12200
C824        C  0.36819083  0.52646798  0.74339456    -0.13700
C825        C  0.07448730  0.65289605  0.74591106    -0.12200
C826        C  0.06504205  0.63202960  0.71915756    -0.13700
C827        C  0.06223227  0.62348677  0.92420415    -0.12200
C828        C  0.07484160  0.64761783  0.89907290    -0.13700
C829        C  0.18318067  0.53944773  0.76858200    -0.12200
C830        C  0.15904553  0.52681680  0.74346299    -0.13700
C831        C  0.18857545  0.53930270  0.92174842    -0.12200
C832        C  0.16771206  0.52984315  0.94851191    -0.13700
C833        C  0.07358948  0.82015717  0.89907149    -0.12200
C834        C  0.06211476  0.83281866  0.92419588    -0.13700
C835        C  0.06757921  0.82975001  0.71915297    -0.12200
C836        C  0.07895924  0.82026065  0.74590613    -0.13700
C837        C  0.36295924  0.72747956  0.94840743    -0.12200
C838        C  0.35156245  0.70660703  0.92165610    -0.13700
C839        C  0.35700643  0.71191347  0.76849090    -0.12200
C840        C  0.36848188  0.73604514  0.74336073    -0.13700
C841        C  0.88068091  0.26071306  0.04369640     0.87600
C842        C  0.93113521  0.29093305  0.03840153    -0.52700
C843        C  0.94203914  0.31214618  0.34025293     0.10500
C844        C  0.90124946  0.30171671  0.31738434     0.21500
C845        C  0.86081612  0.29130093  0.03849113    -0.53400
C846        C  0.87117409  0.31248141  0.34028189     0.10600
C847        C  0.86459085  0.22895812  0.01227497    -0.52900
C848        C  0.87544040  0.25067156  0.31449145     0.11200
H849        H  0.95598022  0.29296173  0.05680982     0.15700
H850        H  0.90997049  0.31907707  0.29181745     0.00600
H851        H  0.83810728  0.29347295  0.05693351     0.16000
H852        H  0.84611728  0.19266703  0.34777838     0.15800
C853        C  0.54991271  0.34529153  0.29052227     0.87600
C854        C  0.49945719  0.32506828  0.29580759    -0.52700
C855        C  0.98855858  0.33538896  0.99395131     0.10500
C856        C  0.52934868  0.36573446  0.01682651     0.21500
C857        C  0.56980765  0.39575754  0.29572725    -0.53400
C858        C  0.55944387  0.40657829  0.99393118     0.10600
C859        C  0.56597152  0.32960947  0.98861800    -0.52900
C860        C  0.55512448  0.34047693  0.01973019     0.11200
H861        H  0.97460677  0.30225796  0.27739604     0.15700
H862        H  0.52063281  0.37437983  0.04238992     0.01400
H863        H  0.59252009  0.42064730  0.27728384     0.16000
H864        H  0.58442379  0.31177803  0.98645605     0.15800
C865        C  0.63439942  0.01434864  0.04379780     0.87600
C866        C  0.60418146  0.03457273  0.03848693    -0.52700
C867        C  0.58299619  0.02424264  0.34033472     0.10500
C868        C  0.59345382  0.49388784  0.31748135     0.21500
C869        C  0.60381432  0.46388144  0.03859814    -0.53400
C870        C  0.58266548  0.45305077  0.34038749     0.10600
C871        C  0.66618355  0.03002100  0.01237885    -0.52900
C872        C  0.64449859  0.01914260  0.31459467     0.11200
H873        H  0.60212344  0.05738360  0.05688831     0.15700
H874        H  0.57611980  0.48523449  0.29191213     0.01400
H875        H  0.60161245  0.43899724  0.05704769     0.16000
H876        H  0.70247212  0.04784900  0.34788430     0.15800
C877        C  0.54975731  0.09881604  0.29053307     0.87600
C878        C  0.57006695  0.06867925  0.29586154    -0.52700
C879        C  0.55972070  0.04745995  0.99400907     0.10500
C880        C  0.52925753  0.05780155  0.01684021     0.21500
C881        C  0.49929751  0.06814415  0.29569782    -0.53400
C882        C  0.98843785  0.04695800  0.99390237     0.10600
C883        C  0.56531415  0.13056511  0.32195737    -0.52900
C884        C  0.55441652  0.10884557  0.01973843     0.11200
H885        H  0.59294064  0.06669810  0.27747344     0.15700
H886        H  0.52058992  0.04043630  0.04240500     0.01400
H887        H  0.97443053  0.06593105  0.27723454     0.16000
H888        H  0.58308731  0.16685538  0.98645731     0.15800
C889        C  0.88064615  0.01427185  0.04372293     0.87600
C890        C  0.86030626  0.46381252  0.03837740    -0.52700
C891        C  0.87064227  0.45295469  0.34022157     0.10500
C892        C  0.90111416  0.49377836  0.31739944     0.21500
C893        C  0.93110259  0.03405283  0.03854946    -0.53400
C894        C  0.94194368  0.02373102  0.34033853     0.10600
C895        C  0.86510223  0.03049203  0.01230865    -0.52900
C896        C  0.87597989  0.01967992  0.31451915     0.11200
H897        H  0.83743965  0.43894115  0.05676603     0.15700
H898        H  0.90976872  0.48509111  0.29182815     0.01400
H899        H  0.95598249  0.05668848  0.05701711     0.16000
H900        H  0.84734359  0.04901435  0.34782130     0.15800
C901        C  0.79612544  0.34512765  0.29038213     0.87600
C902        C  0.82625754  0.39558863  0.29572281    -0.52700
C903        C  0.84740802  0.40645654  0.99388877     0.10500
C904        C  0.83701015  0.36564016  0.01672476     0.21500
C905        C  0.82678634  0.32534626  0.29559050    -0.53400
C906        C  0.84790703  0.33567863  0.99381398     0.10600
C907        C  0.76431015  0.32891716  0.98844886    -0.52900
C908        C  0.78596190  0.33973995  0.01958040     0.11200
H909        H  0.82829174  0.42045465  0.27732513     0.15700
H910        H  0.85431792  0.37433553  0.04230448     0.01400
H911        H  0.82905424  0.30270960  0.27713603     0.16000
H912        H  0.72802461  0.31039390  0.98625395     0.15800
O913        O  0.69398283  0.32618365  0.19846653    -0.80700
C914        C  0.58762199  0.18107434  0.10932939     0.98600
O915        O  0.61911550  0.18445086  0.12811217    -0.69800
O916        O  0.69181903  0.25958353  0.11577895    -0.73400
Al917      Al  0.66096034  0.23225873  0.15723594     1.49000
C918        C  0.71369400  0.30075383  0.10919411     0.93900
O919        O  0.63521599  0.32645197  0.11584063    -0.79600
O920        O  0.56875209  0.26198510  0.19859095    -0.73200
Al921      Al  0.66261843  0.32291409  0.15723192     1.90100
O922        O  0.56593693  0.27567232  0.12814905    -0.72300
O923        O  0.56436727  0.18521219  0.18629948    -0.72100
O924        O  0.56833595  0.20295139  0.11590402    -0.77800
O925        O  0.63294309  0.20097514  0.19853100    -0.76000
O926        O  0.63184133  0.26302138  0.15743687    -1.12100
O927        O  0.70970444  0.27336730  0.18614918    -0.71300
C928        C  0.71568062  0.30643400  0.20423792     0.99400
C929        C  0.59403554  0.30714938  0.10931784     0.95800
Al930      Al  0.57194701  0.23388999  0.15732224     1.55600
O931        O  0.71035927  0.32887976  0.12800424    -0.75900
C932        C  0.59149798  0.17927679  0.20436306     1.00000
C933        C  0.58852963  0.30344186  0.20436398     0.94900
O934        O  0.62157646  0.33053897  0.18624172    -0.81200
O935        O  0.86177316  0.15853866  0.13563958    -0.80700
C936        C  0.71673420  0.05239383  0.22497652     0.98600
O937        O  0.72011725  0.08387122  0.20615938    -0.69800
O938        O  0.79529796  0.15655621  0.21837630    -0.73400
Al939      Al  0.76791281  0.12564790  0.17696810     1.49000
C940        C  0.83647775  0.17842367  0.22490809     0.93900
O941        O  0.86209996  0.09988623  0.21833923    -0.79600
O942        O  0.79750683  0.03330387  0.13571058    -0.73200
Al943      Al  0.85853429  0.12723337  0.17691363     1.90100
O944        O  0.81125575  0.03060188  0.20615013    -0.72300
O945        O  0.72078503  0.02901155  0.14802871    -0.72100
O946        O  0.73858251  0.03307612  0.21841404    -0.77800
O947        O  0.73657682  0.09758396  0.13571625    -0.76000
O948        O  0.79864009  0.09649198  0.17678137    -1.12100
O949        O  0.80901174  0.17433282  0.14798838    -0.71300
C950        C  0.84204138  0.18025422  0.12986675     0.99400
C951        C  0.84276770  0.05871525  0.22492836     0.95800
Al952      Al  0.76947122  0.03659811  0.17698265     1.55600
O953        O  0.86456907  0.17504063  0.20608118    -0.75900
C954        C  0.71485590  0.05613039  0.12993551     1.00000
C955        C  0.83895282  0.05303867  0.12988708     0.94900
O956        O  0.86609059  0.08611571  0.14794624    -0.81200
C957        C  0.74183933  0.31579189  0.07907753    -0.12200
C958        C  0.76271437  0.32719200  0.05231744    -0.13700
C959        C  0.74737579  0.32142490  0.23224647    -0.12200
C960        C  0.77150818  0.33293494  0.25736841    -0.13700
C961        C  0.86533604  0.03224212  0.28177312    -0.12200
C962        C  0.85588181  0.04366129  0.25502107    -0.13700
C963        C  0.85559939  0.03801047  0.10185587    -0.12200
C964        C  0.86819084  0.02646803  0.07672791    -0.13700
C965        C  0.57448730  0.15289592  0.07924441    -0.12200
C966        C  0.56504213  0.13202960  0.05249085    -0.13700
C967        C  0.56223227  0.12348692  0.25753754    -0.12200
C968        C  0.57484160  0.14761784  0.23240621    -0.13700
C969        C  0.68318057  0.03944786  0.10191535    -0.12200
C970        C  0.65904562  0.02681677  0.07679627    -0.13700
C971        C  0.68857544  0.03930271  0.25508178    -0.12200
C972        C  0.66771209  0.02984333  0.28184525    -0.13700
C973        C  0.57358942  0.32015709  0.23240479    -0.12200
C974        C  0.56211480  0.33281863  0.25752922    -0.13700
C975        C  0.56757919  0.32975003  0.05248629    -0.12200
C976        C  0.57895935  0.32026067  0.07923935    -0.13700
C977        C  0.86295934  0.22747964  0.28174071    -0.12200
C978        C  0.85156254  0.20660707  0.25498941    -0.13700
C979        C  0.85700641  0.21191346  0.10182426    -0.12200
C980        C  0.86848182  0.23604513  0.07669406    -0.13700
C981        C  0.88068087  0.26071310  0.37702971     0.87600
C982        C  0.93113522  0.29093312  0.37173472    -0.52700
C983        C  0.94203908  0.31214609  0.67358641     0.10500
C984        C  0.90124945  0.30171679  0.65071773     0.21500
C985        C  0.86081616  0.29130095  0.37182441    -0.53400
C986        C  0.87117413  0.31248145  0.67361536     0.10600
C987        C  0.86459086  0.22895809  0.34560828    -0.52900
C988        C  0.87544039  0.25067159  0.64782472     0.11200
H989        H  0.95598013  0.29296186  0.39014280     0.15700
H990        H  0.90997062  0.31907746  0.62515108     0.00600
H991        H  0.83810763  0.29347344  0.39026683     0.16000
H992        H  0.84611717  0.19266706  0.68111164     0.15800
C993        C  0.54991278  0.34529152  0.62385577     0.87600
C994        C  0.49945720  0.32506831  0.62914112    -0.52700
C995        C  0.98855858  0.33538888  0.32728443     0.10500
C996        C  0.52934863  0.36573440  0.35015968     0.21500
C997        C  0.56980765  0.39575746  0.62906075    -0.53400
C998        C  0.55944396  0.40657830  0.32726429     0.10600
C999        C  0.56597143  0.32960948  0.32195135    -0.52900
C1000       C  0.55512454  0.34047703  0.35306347     0.11200
H1001       H  0.97460750  0.30225883  0.61072973     0.15700
H1002       H  0.52063274  0.37437963  0.37572311     0.01400
H1003       H  0.59251964  0.42064687  0.61061742     0.16000
H1004       H  0.58442373  0.31177812  0.31978948     0.15800
C1005       C  0.63439942  0.01434879  0.37713109     0.87600
C1006       C  0.60418140  0.03457275  0.37182023    -0.52700
C1007       C  0.58299603  0.02424254  0.67366827     0.10500
C1008       C  0.59345387  0.49388795  0.65081480     0.21500
C1009       C  0.60381438  0.46388139  0.37193140    -0.53400
C1010       C  0.58266544  0.45305080  0.67372091     0.10600
C1011       C  0.66618339  0.03002095  0.34571213    -0.52900
C1012       C  0.64449849  0.01914254  0.64792809     0.11200
H1013       H  0.60212367  0.05738422  0.39022149     0.15700
H1014       H  0.57611951  0.48523474  0.62524562     0.01400
H1015       H  0.60161292  0.43899713  0.39038101     0.16000
H1016       H  0.70247169  0.04784898  0.68121782     0.15800
C1017       C  0.54975725  0.09881580  0.62386639     0.87600
C1018       C  0.57006699  0.06867913  0.62919493    -0.52700
C1019       C  0.55972073  0.04745991  0.32734241     0.10500
C1020       C  0.52925752  0.05780153  0.35017357     0.21500
C1021       C  0.49929761  0.06814409  0.62903107    -0.53400
C1022       C  0.98843797  0.04695805  0.32723587     0.10600
C1023       C  0.56531403  0.13056486  0.65529067    -0.52900
C1024       C  0.55441657  0.10884574  0.35307173     0.11200
H1025       H  0.59294067  0.06669820  0.61080717     0.15700
H1026       H  0.52058958  0.04043614  0.37573852     0.01400
H1027       H  0.97443007  0.06593108  0.61056772     0.16000
H1028       H  0.58308720  0.16685618  0.31979068     0.15800
C1029       C  0.88064616  0.01427180  0.37705631     0.87600
C1030       C  0.86030629  0.46381244  0.37171086    -0.52700
C1031       C  0.87064248  0.45295486  0.67355485     0.10500
C1032       C  0.90111418  0.49377842  0.65073274     0.21500
C1033       C  0.93110265  0.03405279  0.37188288    -0.53400
C1034       C  0.94194369  0.02373083  0.67367196     0.10600
C1035       C  0.86510221  0.03049202  0.34564193    -0.52900
C1036       C  0.87597977  0.01967995  0.64785251     0.11200
H1037       H  0.83743902  0.43894099  0.39009943     0.15700
H1038       H  0.90976902  0.48509116  0.62516149     0.01400
H1039       H  0.95598253  0.05668872  0.39035028     0.16000
H1040       H  0.84734389  0.04901503  0.68115466     0.15800
C1041       C  0.79612561  0.34512793  0.62371548     0.87600
C1042       C  0.82625753  0.39558883  0.62905612    -0.52700
C1043       C  0.84740806  0.40645653  0.32722204     0.10500
C1044       C  0.83701016  0.36564017  0.35005796     0.21500
C1045       C  0.82678645  0.32534639  0.62892392    -0.53400
C1046       C  0.84790699  0.33567842  0.32714711     0.10600
C1047       C  0.76431018  0.32891715  0.32178219    -0.52900
C1048       C  0.78596183  0.33973992  0.35291365     0.11200
H1049       H  0.82829171  0.42045473  0.61065834     0.15700
H1050       H  0.85431797  0.37433572  0.37563763     0.01400
H1051       H  0.82905391  0.30270966  0.61046991     0.16000
H1052       H  0.72802421  0.31039409  0.31958726     0.15800
O1053       O  0.69398289  0.32618373  0.53179983    -0.80700
C1054       C  0.58762193  0.18107442  0.44266271     0.98600
O1055       O  0.61911550  0.18445092  0.46144545    -0.69800
O1056       O  0.69181905  0.25958346  0.44911224    -0.73400
Al1057     Al  0.66096035  0.23225874  0.49056925     1.49000
C1058       C  0.71369404  0.30075379  0.44252744     0.93900
O1059       O  0.63521598  0.32645193  0.44917394    -0.79600
O1060       O  0.56875220  0.26198515  0.53192433    -0.73200
Al1061     Al  0.66261840  0.32291409  0.49056526     1.90100
O1062       O  0.56593694  0.27567233  0.46148243    -0.72300
O1063       O  0.56436737  0.18521210  0.51963266    -0.72100
O1064       O  0.56833596  0.20295161  0.44923727    -0.77800
O1065       O  0.63294319  0.20097521  0.53186433    -0.76000
O1066       O  0.63184134  0.26302148  0.49077017    -1.12100
O1067       O  0.70970463  0.27336745  0.51948248    -0.71300
C1068       C  0.71568051  0.30643394  0.53757134     0.99400
C1069       C  0.59403548  0.30714954  0.44265131     0.95800
Al1070     Al  0.57194707  0.23389014  0.49065557     1.55600
O1071       O  0.71035924  0.32887972  0.46133756    -0.75900
C1072       C  0.59149810  0.17927690  0.53769642     1.00000
C1073       C  0.58852971  0.30344185  0.53769741     0.94900
O1074       O  0.62157643  0.33053897  0.51957511    -0.81200
O1075       O  0.86177333  0.15853887  0.46897285    -0.80700
C1076       C  0.71673428  0.05239384  0.55830988     0.98600
O1077       O  0.72011722  0.08387113  0.53949274    -0.69800
O1078       O  0.79529789  0.15655632  0.55170957    -0.73400
Al1079     Al  0.76791281  0.12564785  0.51030143     1.49000
C1080       C  0.83647766  0.17842362  0.55824149     0.93900
O1081       O  0.86209997  0.09988618  0.55167251    -0.79600
O1082       O  0.79750706  0.03330396  0.46904396    -0.73200
Al1083     Al  0.85853428  0.12723340  0.51024696     1.90100
O1084       O  0.81125590  0.03060206  0.53948349    -0.72300
O1085       O  0.72078510  0.02901157  0.48136199    -0.72100
O1086       O  0.73858263  0.03307614  0.55174732    -0.77800
O1087       O  0.73657679  0.09758394  0.46904958    -0.76000
O1088       O  0.79864010  0.09649196  0.51011454    -1.12100
O1089       O  0.80901168  0.17433295  0.48132165    -0.71300
C1090       C  0.84204147  0.18025442  0.46320008     0.99400
C1091       C  0.84276766  0.05871529  0.55826179     0.95800
Al1092     Al  0.76947134  0.03659816  0.51031596     1.55600
O1093       O  0.86456907  0.17504075  0.53941462    -0.75900
C1094       C  0.71485588  0.05613036  0.46326883     1.00000
C1095       C  0.83895296  0.05303886  0.46322031     0.94900
O1096       O  0.86609068  0.08611578  0.48127954    -0.81200
C1097       C  0.74183948  0.31579188  0.41241088    -0.12200
C1098       C  0.76271443  0.32719210  0.38565075    -0.13700
C1099       C  0.74737574  0.32142488  0.56557973    -0.12200
C1100       C  0.77150804  0.33293491  0.59070170    -0.13700
C1101       C  0.86533601  0.03224223  0.61510656    -0.12200
C1102       C  0.85588181  0.04366119  0.58835441    -0.13700
C1103       C  0.85559944  0.03801038  0.43518929    -0.12200
C1104       C  0.86819085  0.02646809  0.41006125    -0.13700
C1105       C  0.57448728  0.15289604  0.41257771    -0.12200
C1106       C  0.56504194  0.13202957  0.38582421    -0.13700
C1107       C  0.56223224  0.12348690  0.59087087    -0.12200
C1108       C  0.57484172  0.14761780  0.56573951    -0.13700
C1109       C  0.68318060  0.03944777  0.43524861    -0.12200
C1110       C  0.65904554  0.02681684  0.41012959    -0.13700
C1111       C  0.68857544  0.03930281  0.58841514    -0.12200
C1112       C  0.66771197  0.02984319  0.61517858    -0.13700
C1113       C  0.57358948  0.32015702  0.56573820    -0.12200
C1114       C  0.56211481  0.33281863  0.59086257    -0.13700
C1115       C  0.56757937  0.32975001  0.38581949    -0.12200
C1116       C  0.57895920  0.32026071  0.41257276    -0.13700
C1117       C  0.86295927  0.22747959  0.61507394    -0.12200
C1118       C  0.85156251  0.20660713  0.58832261    -0.13700
C1119       C  0.85700646  0.21191351  0.43515758    -0.12200
C1120       C  0.86848184  0.23604524  0.41002744    -0.13700
C1121       C  0.88068086  0.26071297  0.71036304     0.87600
C1122       C  0.93113513  0.29093300  0.70506818    -0.52700
C1123       C  0.94203913  0.31214602  0.00691976     0.10500
C1124       C  0.90124942  0.30171675  0.98405108     0.21500
C1125       C  0.86081609  0.29130081  0.70515780    -0.53400
C1126       C  0.87117401  0.31248145  0.00694864     0.10600
C1127       C  0.86459089  0.22895813  0.67894154    -0.52900
C1128       C  0.87544038  0.25067155  0.98115817     0.11200
H1129       H  0.95598003  0.29296152  0.72347623     0.15700
H1130       H  0.90997047  0.31907705  0.95848420     0.00600
H1131       H  0.83810731  0.29347296  0.72360009     0.16000
H1132       H  0.84611681  0.19266695  0.01444512     0.15800
C1133       C  0.54991265  0.34529147  0.95718902     0.87600
C1134       C  0.49945707  0.32506828  0.96247439    -0.52700
C1135       C  0.98855870  0.33538923  0.66061804     0.10500
C1136       C  0.52934858  0.36573449  0.68349323     0.21500
C1137       C  0.56980753  0.39575750  0.96239406    -0.53400
C1138       C  0.55944393  0.40657827  0.66059787     0.10600
C1139       C  0.56597166  0.32960963  0.65528469    -0.52900
C1140       C  0.55512449  0.34047701  0.68639690     0.11200
H1141       H  0.97460702  0.30225820  0.94406305     0.15700
H1142       H  0.52063272  0.37437997  0.70905666     0.01400
H1143       H  0.59251992  0.42064707  0.94395096     0.16000
H1144       H  0.58442352  0.31177783  0.65312275     0.15800
C1145       C  0.63439917  0.01434856  0.71046460     0.87600
C1146       C  0.60418139  0.03457279  0.70515365    -0.52700
C1147       C  0.58299609  0.02424250  0.00700144     0.10500
C1148       C  0.59345376  0.49388787  0.98414808     0.21500
C1149       C  0.60381436  0.46388142  0.70526479    -0.53400
C1150       C  0.58266526  0.45305087  0.00705427     0.10600
C1151       C  0.66618329  0.03002088  0.67904558    -0.52900
C1152       C  0.64449875  0.01914259  0.98126143     0.11200
H1153       H  0.60212304  0.05738370  0.72355536     0.15700
H1154       H  0.57611941  0.48523450  0.95857908     0.01400
H1155       H  0.60161278  0.43899700  0.72371458     0.16000
H1156       H  0.70247222  0.04784889  0.01455098     0.15800
C1157       C  0.54975720  0.09881586  0.95719968     0.87600
C1158       C  0.57006685  0.06867915  0.96252811    -0.52700
C1159       C  0.55972062  0.04745978  0.66067584     0.10500
C1160       C  0.52925747  0.05780148  0.68350690     0.21500
C1161       C  0.49929755  0.06814413  0.96236440    -0.53400
C1162       C  0.98843791  0.04695801  0.66056903     0.10600
C1163       C  0.56531403  0.13056487  0.98862404    -0.52900
C1164       C  0.55441642  0.10884553  0.68640509     0.11200
H1165       H  0.59294071  0.06669842  0.94414038     0.15700
H1166       H  0.52058947  0.04043625  0.70907173     0.01400
H1167       H  0.97443049  0.06593115  0.94390106     0.16000
H1168       H  0.58308724  0.16685530  0.65312395     0.15800
C1169       C  0.88064614  0.01427189  0.71038960     0.87600
C1170       C  0.86030628  0.46381254  0.70504412    -0.52700
C1171       C  0.87064237  0.45295477  0.00688812     0.10500
C1172       C  0.90111422  0.49377838  0.98406603     0.21500
C1173       C  0.93110264  0.03405277  0.70521627    -0.53400
C1174       C  0.94194361  0.02373080  0.00700514     0.10600
C1175       C  0.86510224  0.03049213  0.67897522    -0.52900
C1176       C  0.87597985  0.01967998  0.98118582     0.11200
H1177       H  0.83743919  0.43894112  0.72343238     0.15700
H1178       H  0.90976876  0.48509106  0.95849459     0.01400
H1179       H  0.95598245  0.05668855  0.72368379     0.16000
H1180       H  0.84734386  0.04901487  0.01448823     0.15800
C1181       C  0.79612546  0.34512783  0.95704883     0.87600
C1182       C  0.82625748  0.39558866  0.96238945    -0.52700
C1183       C  0.84740819  0.40645666  0.66055546     0.10500
C1184       C  0.83701027  0.36564019  0.68339151     0.21500
C1185       C  0.82678644  0.32534653  0.96225725    -0.53400
C1186       C  0.84790708  0.33567853  0.66048071     0.10600
C1187       C  0.76431034  0.32891724  0.65511554    -0.52900
C1188       C  0.78596210  0.33974006  0.68624712     0.11200
H1189       H  0.82829154  0.42045459  0.94399179     0.15700
H1190       H  0.85431815  0.37433558  0.70897128     0.01400
H1191       H  0.82905388  0.30270977  0.94380328     0.16000
H1192       H  0.72802509  0.31039466  0.65292068     0.15800
O1193       O  0.69398279  0.32618360  0.86513323    -0.80700
C1194       C  0.58762198  0.18107442  0.77599604     0.98600
O1195       O  0.61911545  0.18445078  0.79477884    -0.69800
O1196       O  0.69181885  0.25958348  0.78244556    -0.73400
Al1197     Al  0.66096034  0.23225877  0.82390259     1.49000
C1198       C  0.71369389  0.30075382  0.77586081     0.93900
O1199       O  0.63521598  0.32645202  0.78250734    -0.79600
O1200       O  0.56875215  0.26198505  0.86525756    -0.73200
Al1201     Al  0.66261837  0.32291410  0.82389861     1.90100
O1202       O  0.56593689  0.27567230  0.79481576    -0.72300
O1203       O  0.56436723  0.18521213  0.85296604    -0.72100
O1204       O  0.56833597  0.20295160  0.78257061    -0.77800
O1205       O  0.63294321  0.20097527  0.86519762    -0.76000
O1206       O  0.63184119  0.26302138  0.82410345    -1.12100
O1207       O  0.70970455  0.27336744  0.85281585    -0.71300
C1208       C  0.71568058  0.30643399  0.87090465     0.99400
C1209       C  0.59403550  0.30714938  0.77598458     0.95800
Al1210     Al  0.57194689  0.23389000  0.82398889     1.55600
O1211       O  0.71035914  0.32887972  0.79467102    -0.75900
C1212       C  0.59149802  0.17927678  0.87102961     1.00000
C1213       C  0.58852955  0.30344181  0.87103066     0.94900
O1214       O  0.62157639  0.33053899  0.85290852    -0.81200
O1215       O  0.86177326  0.15853884  0.80230627    -0.80700
C1216       C  0.71673438  0.05239389  0.89164321     0.98600
O1217       O  0.72011732  0.08387123  0.87282606    -0.69800
O1218       O  0.79529782  0.15655634  0.88504299    -0.73400
Al1219     Al  0.76791278  0.12564791  0.84363479     1.49000
C1220       C  0.83647763  0.17842365  0.89157483     0.93900
O1221       O  0.86209990  0.09988621  0.88500592    -0.79600
O1222       O  0.79750704  0.03330393  0.80237717    -0.73200
Al1223     Al  0.85853430  0.12723341  0.84358030     1.90100
O1224       O  0.81125583  0.03060186  0.87281671    -0.72300
O1225       O  0.72078509  0.02901151  0.81469532    -0.72100
O1226       O  0.73858257  0.03307602  0.88508057    -0.77800
O1227       O  0.73657674  0.09758392  0.80238298    -0.76000
O1228       O  0.79864005  0.09649201  0.84344793    -1.12100
O1229       O  0.80901167  0.17433279  0.81465500    -0.71300
C1230       C  0.84204135  0.18025425  0.79653338     0.99400
C1231       C  0.84276757  0.05871524  0.89159509     0.95800
Al1232     Al  0.76947126  0.03659810  0.84364923     1.55600
O1233       O  0.86456906  0.17504063  0.87274798    -0.75900
C1234       C  0.71485604  0.05613036  0.79660211     1.00000
C1235       C  0.83895300  0.05303876  0.79655370     0.94900
O1236       O  0.86609070  0.08611576  0.81461293    -0.81200
C1237       C  0.74183928  0.31579188  0.74574415    -0.12200
C1238       C  0.76271438  0.32719205  0.71898406    -0.13700
C1239       C  0.74737573  0.32142483  0.89891317    -0.12200
C1240       C  0.77150821  0.33293491  0.92403503    -0.13700
C1241       C  0.86533594  0.03224211  0.94843984    -0.12200
C1242       C  0.85588181  0.04366120  0.92168771    -0.13700
C1243       C  0.85559949  0.03801053  0.76852251    -0.12200
C1244       C  0.86819090  0.02646798  0.74339461    -0.13700
C1245       C  0.57448734  0.15289598  0.74591107    -0.12200
C1246       C  0.56504200  0.13202955  0.71915754    -0.13700
C1247       C  0.56223223  0.12348682  0.92420417    -0.12200
C1248       C  0.57484153  0.14761784  0.89907287    -0.13700
C1249       C  0.68318069  0.03944784  0.76858200    -0.12200
C1250       C  0.65904554  0.02681682  0.74346302    -0.13700
C1251       C  0.68857548  0.03930274  0.92174849    -0.12200
C1252       C  0.66771211  0.02984331  0.94851196    -0.13700
C1253       C  0.57358943  0.32015710  0.89907148    -0.12200
C1254       C  0.56211479  0.33281866  0.92419588    -0.13700
C1255       C  0.56757922  0.32975000  0.71915297    -0.12200
C1256       C  0.57895922  0.32026065  0.74590614    -0.13700
C1257       C  0.86295923  0.22747960  0.94840740    -0.12200
C1258       C  0.85156243  0.20660703  0.92165610    -0.13700
C1259       C  0.85700639  0.21191345  0.76849089    -0.12200
C1260       C  0.86848188  0.23604513  0.74336071    -0.13700
C1261       C  0.88068099  0.76071304  0.04369644     0.87600
C1262       C  0.93113520  0.79093302  0.03840156    -0.52700
C1263       C  0.94203899  0.81214609  0.34025296     0.10500
C1264       C  0.90124942  0.80171674  0.31738435     0.21500
C1265       C  0.86081618  0.79130088  0.03849111    -0.53400
C1266       C  0.87117401  0.81248142  0.34028186     0.10600
C1267       C  0.86459092  0.72895814  0.01227502    -0.52900
C1268       C  0.87544040  0.75067162  0.31449145     0.11200
H1269       H  0.95598022  0.79296170  0.05680990     0.15700
H1270       H  0.90997059  0.81907701  0.29181740     0.00600
H1271       H  0.83810743  0.79347306  0.05693341     0.16000
H1272       H  0.84611687  0.69266716  0.34777844     0.15800
C1273       C  0.54991261  0.84529151  0.29052225     0.87600
C1274       C  0.49945711  0.82506831  0.29580761    -0.52700
C1275       C  0.98855865  0.83538900  0.99395135     0.10500
C1276       C  0.52934856  0.86573446  0.01682650     0.21500
C1277       C  0.56980757  0.89575753  0.29572726    -0.53400
C1278       C  0.55944393  0.90657831  0.99393117     0.10600
C1279       C  0.56597163  0.82960955  0.98861797    -0.52900
C1280       C  0.55512446  0.84047697  0.01973017     0.11200
H1281       H  0.97460682  0.80225802  0.27739593     0.15700
H1282       H  0.52063261  0.87437977  0.04238993     0.01400
H1283       H  0.59252001  0.92064723  0.27728384     0.16000
H1284       H  0.58442371  0.81177801  0.98645604     0.15800
C1285       C  0.63439926  0.51434866  0.04379784     0.87600
C1286       C  0.60418138  0.53457279  0.03848695    -0.52700
C1287       C  0.58299605  0.52424245  0.34033471     0.10500
C1288       C  0.59345381  0.99388796  0.31748130     0.21500
C1289       C  0.60381436  0.96388143  0.03859814    -0.53400
C1290       C  0.58266541  0.95305101  0.34038745     0.10600
C1291       C  0.66618334  0.53002089  0.01237883    -0.52900
C1292       C  0.64449865  0.51914268  0.31459468     0.11200
H1293       H  0.60212309  0.55738369  0.05688835     0.15700
H1294       H  0.57611955  0.98523457  0.29191209     0.01400
H1295       H  0.60161286  0.93899709  0.05704758     0.16000
H1296       H  0.70247216  0.54784918  0.34788426     0.15800
C1297       C  0.54975734  0.59881602  0.29053306     0.87600
C1298       C  0.57006691  0.56867929  0.29586149    -0.52700
C1299       C  0.55972064  0.54745987  0.99400912     0.10500
C1300       C  0.52925750  0.55780162  0.01684023     0.21500
C1301       C  0.49929760  0.56814414  0.29569787    -0.53400
C1302       C  0.98843793  0.54695815  0.99390233     0.10600
C1303       C  0.56531422  0.63056505  0.32195732    -0.52900
C1304       C  0.55441662  0.60884579  0.01973838     0.11200
H1305       H  0.59294041  0.56669810  0.27747324     0.15700
H1306       H  0.52058945  0.54043638  0.04240505     0.01400
H1307       H  0.97443059  0.56593119  0.27723458     0.16000
H1308       H  0.58308768  0.66685604  0.98645729     0.15800
C1309       C  0.88064619  0.51427189  0.04372288     0.87600
C1310       C  0.86030625  0.96381251  0.03837745    -0.52700
C1311       C  0.87064237  0.95295470  0.34022153     0.10500
C1312       C  0.90111422  0.99377834  0.31739941     0.21500
C1313       C  0.93110269  0.53405286  0.03854946    -0.53400
C1314       C  0.94194362  0.52373097  0.34033857     0.10600
C1315       C  0.86510214  0.53049206  0.01230861    -0.52900
C1316       C  0.87597988  0.51967991  0.31451918     0.11200
H1317       H  0.83743922  0.93894111  0.05676603     0.15700
H1318       H  0.90976881  0.98509103  0.29182816     0.01400
H1319       H  0.95598253  0.55668859  0.05701712     0.16000
H1320       H  0.84734362  0.54901430  0.34782130     0.15800
C1321       C  0.79612531  0.84512772  0.29038216     0.87600
C1322       C  0.82625747  0.89558863  0.29572279    -0.52700
C1323       C  0.84740812  0.90645653  0.99388879     0.10500
C1324       C  0.83701019  0.86564020  0.01672481     0.21500
C1325       C  0.82678626  0.82534639  0.29559052    -0.53400
C1326       C  0.84790709  0.83567860  0.99381406     0.10600
C1327       C  0.76431027  0.82891729  0.98844886    -0.52900
C1328       C  0.78596195  0.83974002  0.01958046     0.11200
H1329       H  0.82829170  0.92045466  0.27732509     0.15700
H1330       H  0.85431832  0.87433599  0.04230456     0.01400
H1331       H  0.82905395  0.80270978  0.27713613     0.16000
H1332       H  0.72802476  0.81039415  0.98625391     0.15800
O1333       O  0.69398283  0.82618369  0.19846653    -0.80700
C1334       C  0.58762198  0.68107436  0.10932940     0.98600
O1335       O  0.61911551  0.68445081  0.12811216    -0.69800
O1336       O  0.69181899  0.75958354  0.11577891    -0.73400
Al1337     Al  0.66096036  0.73225877  0.15723595     1.49000
C1338       C  0.71369401  0.80075386  0.10919413     0.93900
O1339       O  0.63521599  0.82645201  0.11584064    -0.79600
O1340       O  0.56875212  0.76198511  0.19859091    -0.73200
Al1341     Al  0.66261842  0.82291414  0.15723195     1.90100
O1342       O  0.56593694  0.77567229  0.12814906    -0.72300
O1343       O  0.56436725  0.68521219  0.18629945    -0.72100
O1344       O  0.56833596  0.70295154  0.11590397    -0.77800
O1345       O  0.63294321  0.70097519  0.19853107    -0.76000
O1346       O  0.63184122  0.76302141  0.15743688    -1.12100
O1347       O  0.70970444  0.77336736  0.18614919    -0.71300
C1348       C  0.71568058  0.80643402  0.20423794     0.99400
C1349       C  0.59403552  0.80714940  0.10931788     0.95800
Al1350     Al  0.57194691  0.73389002  0.15732221     1.55600
O1351       O  0.71035922  0.82887978  0.12800426    -0.75900
C1352       C  0.59149803  0.67927682  0.20436306     1.00000
C1353       C  0.58852964  0.80344186  0.20436400     0.94900
O1354       O  0.62157640  0.83053901  0.18624174    -0.81200
O1355       O  0.86177318  0.65853869  0.13563959    -0.80700
C1356       C  0.71673419  0.55239370  0.22497650     0.98600
O1357       O  0.72011718  0.58387111  0.20615944    -0.69800
O1358       O  0.79529782  0.65655615  0.21837633    -0.73400
Al1359     Al  0.76791276  0.62564782  0.17696814     1.49000
C1360       C  0.83647764  0.67842360  0.22490809     0.93900
O1361       O  0.86209990  0.59988615  0.21833922    -0.79600
O1362       O  0.79750703  0.53330393  0.13571059    -0.73200
Al1363     Al  0.85853429  0.62723336  0.17691363     1.90100
O1364       O  0.81125583  0.53060194  0.20615002    -0.72300
O1365       O  0.72078504  0.52901137  0.14802871    -0.72100
O1366       O  0.73858258  0.53307598  0.21841404    -0.77800
O1367       O  0.73657676  0.59758393  0.13571632    -0.76000
O1368       O  0.79864003  0.59649189  0.17678135    -1.12100
O1369       O  0.80901170  0.67433284  0.14798836    -0.71300
C1370       C  0.84204128  0.68025415  0.12986671     0.99400
C1371       C  0.84276764  0.55871523  0.22492837     0.95800
Al1372     Al  0.76947124  0.53659803  0.17698262     1.55600
O1373       O  0.86456903  0.67504065  0.20608115    -0.75900
C1374       C  0.71485600  0.55613029  0.12993550     1.00000
C1375       C  0.83895302  0.55303870  0.12988714     0.94900
O1376       O  0.86609073  0.58611585  0.14794625    -0.81200
C1377       C  0.74183927  0.81579187  0.07907748    -0.12200
C1378       C  0.76271435  0.82719204  0.05231742    -0.13700
C1379       C  0.74737573  0.82142492  0.23224648    -0.12200
C1380       C  0.77150814  0.83293495  0.25736840    -0.13700
C1381       C  0.86533604  0.53224212  0.28177318    -0.12200
C1382       C  0.85588187  0.54366130  0.25502110    -0.13700
C1383       C  0.85559948  0.53801054  0.10185583    -0.12200
C1384       C  0.86819090  0.52646800  0.07672789    -0.13700
C1385       C  0.57448734  0.65289593  0.07924441    -0.12200
C1386       C  0.56504206  0.63202962  0.05249085    -0.13700
C1387       C  0.56223228  0.62348687  0.25753753    -0.12200
C1388       C  0.57484160  0.64761787  0.23240624    -0.13700
C1389       C  0.68318058  0.53944770  0.10191536    -0.12200
C1390       C  0.65904552  0.52681681  0.07679632    -0.13700
C1391       C  0.68857541  0.53930274  0.25508169    -0.12200
C1392       C  0.66771202  0.52984318  0.28184514    -0.13700
C1393       C  0.57358940  0.82015714  0.23240475    -0.12200
C1394       C  0.56211472  0.83281864  0.25752917    -0.13700
C1395       C  0.56757924  0.82975004  0.05248626    -0.12200
C1396       C  0.57895927  0.82026065  0.07923939    -0.13700
C1397       C  0.86295923  0.72747959  0.28174072    -0.12200
C1398       C  0.85156246  0.70660701  0.25498941    -0.13700
C1399       C  0.85700626  0.71191344  0.10182430    -0.12200
C1400       C  0.86848187  0.73604514  0.07669412    -0.13700
C1401       C  0.88068085  0.76071312  0.37702973     0.87600
C1402       C  0.93113514  0.79093304  0.37173475    -0.52700
C1403       C  0.94203911  0.81214609  0.67358636     0.10500
C1404       C  0.90124946  0.80171678  0.65071772     0.21500
C1405       C  0.86081616  0.79130102  0.37182440    -0.53400
C1406       C  0.87117409  0.81248144  0.67361537     0.10600
C1407       C  0.86459081  0.72895813  0.34560831    -0.52900
C1408       C  0.87544044  0.75067158  0.64782473     0.11200
H1409       H  0.95598005  0.79296188  0.39014283     0.15700
H1410       H  0.90997059  0.81907743  0.62515106     0.00600
H1411       H  0.83810754  0.79347350  0.39026680     0.16000
H1412       H  0.84611697  0.69266705  0.68111165     0.15800
C1413       C  0.54991284  0.84529152  0.62385577     0.87600
C1414       C  0.49945732  0.82506838  0.62914107    -0.52700
C1415       C  0.98855841  0.83538881  0.32728446     0.10500
C1416       C  0.52934868  0.86573447  0.35015972     0.21500
C1417       C  0.56980764  0.89575744  0.62906079    -0.53400
C1418       C  0.55944399  0.90657839  0.32726434     0.10600
C1419       C  0.56597136  0.82960944  0.32195130    -0.52900
C1420       C  0.55512446  0.84047695  0.35306348     0.11200
H1421       H  0.97460738  0.80225875  0.61072971     0.15700
H1422       H  0.52063301  0.87438002  0.37572316     0.01400
H1423       H  0.59251971  0.92064683  0.61061752     0.16000
H1424       H  0.58442365  0.81177805  0.31978936     0.15800
C1425       C  0.63439936  0.51434855  0.37713108     0.87600
C1426       C  0.60418143  0.53457269  0.37182022    -0.52700
C1427       C  0.58299614  0.52424252  0.67366819     0.10500
C1428       C  0.59345379  0.99388792  0.65081483     0.21500
C1429       C  0.60381451  0.96388166  0.37193136    -0.53400
C1430       C  0.58266547  0.95305078  0.67372094     0.10600
C1431       C  0.66618344  0.53002087  0.34571214    -0.52900
C1432       C  0.64449863  0.51914266  0.64792808     0.11200
H1433       H  0.60212335  0.55738345  0.39022166     0.15700
H1434       H  0.57611967  0.98523472  0.62524564     0.01400
H1435       H  0.60161257  0.93899751  0.39038104     0.16000
H1436       H  0.70247219  0.54784902  0.68121778     0.15800
C1437       C  0.54975724  0.59881576  0.62386628     0.87600
C1438       C  0.57006700  0.56867912  0.62919488    -0.52700
C1439       C  0.55972065  0.54745984  0.32734234     0.10500
C1440       C  0.52925758  0.55780150  0.35017357     0.21500
C1441       C  0.49929754  0.56814405  0.62903100    -0.53400
C1442       C  0.98843792  0.54695806  0.32723588     0.10600
C1443       C  0.56531400  0.63056486  0.65529063    -0.52900
C1444       C  0.55441666  0.60884571  0.35307170     0.11200
H1445       H  0.59294119  0.56669836  0.61080707     0.15700
H1446       H  0.52058991  0.54043615  0.37573855     0.01400
H1447       H  0.97443038  0.56593093  0.61056774     0.16000
H1448       H  0.58308776  0.66685610  0.31979060     0.15800
C1449       C  0.88064610  0.51427174  0.37705633     0.87600
C1450       C  0.86030629  0.96381245  0.37171081    -0.52700
C1451       C  0.87064236  0.95295478  0.67355485     0.10500
C1452       C  0.90111418  0.99377837  0.65073278     0.21500
C1453       C  0.93110252  0.53405276  0.37188288    -0.53400
C1454       C  0.94194367  0.52373082  0.67367189     0.10600
C1455       C  0.86510224  0.53049200  0.34564195    -0.52900
C1456       C  0.87597975  0.51967993  0.64785247     0.11200
H1457       H  0.83743959  0.93894107  0.39009949     0.15700
H1458       H  0.90976880  0.98509112  0.62516155     0.01400
H1459       H  0.95598230  0.55668863  0.39035040     0.16000
H1460       H  0.84734387  0.54901493  0.68115470     0.15800
C1461       C  0.79612538  0.84512772  0.62371548     0.87600
C1462       C  0.82625745  0.89558869  0.62905615    -0.52700
C1463       C  0.84740803  0.90645652  0.32722203     0.10500
C1464       C  0.83701013  0.86564019  0.35005798     0.21500
C1465       C  0.82678632  0.82534627  0.62892390    -0.53400
C1466       C  0.84790699  0.83567853  0.32714714     0.10600
C1467       C  0.76431011  0.82891716  0.32178218    -0.52900
C1468       C  0.78596176  0.83973992  0.35291364     0.11200
H1469       H  0.82829158  0.92045468  0.61065847     0.15700
H1470       H  0.85431790  0.87433573  0.37563766     0.01400
H1471       H  0.82905418  0.80270977  0.61046971     0.16000
H1472       H  0.72802410  0.81039406  0.31958720     0.15800
O1473       O  0.69398292  0.82618369  0.53179985    -0.80700
C1474       C  0.58762214  0.68107451  0.44266268     0.98600
O1475       O  0.61911553  0.68445093  0.46144556    -0.69800
O1476       O  0.69181901  0.75958349  0.44911222    -0.73400
Al1477     Al  0.66096044  0.73225877  0.49056925     1.49000
C1478       C  0.71369397  0.80075383  0.44252742     0.93900
O1479       O  0.63521595  0.82645199  0.44917401    -0.79600
O1480       O  0.56875222  0.76198514  0.53192431    -0.73200
Al1481     Al  0.66261843  0.82291411  0.49056528     1.90100
O1482       O  0.56593698  0.77567232  0.46148241    -0.72300
O1483       O  0.56436732  0.68521205  0.51963269    -0.72100
O1484       O  0.56833603  0.70295150  0.44923734    -0.77800
O1485       O  0.63294333  0.70097526  0.53186435    -0.76000
O1486       O  0.63184141  0.76302147  0.49077019    -1.12100
O1487       O  0.70970464  0.77336743  0.51948244    -0.71300
C1488       C  0.71568064  0.80643399  0.53757126     0.99400
C1489       C  0.59403549  0.80714944  0.44265125     0.95800
Al1490     Al  0.57194706  0.73389008  0.49065557     1.55600
O1491       O  0.71035923  0.82887976  0.46133756    -0.75900
C1492       C  0.59149816  0.67927693  0.53769642     1.00000
C1493       C  0.58852966  0.80344185  0.53769737     0.94900
O1494       O  0.62157642  0.83053899  0.51957511    -0.81200
O1495       O  0.86177330  0.65853886  0.46897287    -0.80700
C1496       C  0.71673418  0.55239386  0.55830985     0.98600
O1497       O  0.72011725  0.58387125  0.53949274    -0.69800
O1498       O  0.79529797  0.65655638  0.55170960    -0.73400
Al1499     Al  0.76791281  0.62564790  0.51030142     1.49000
C1500       C  0.83647774  0.67842365  0.55824148     0.93900
O1501       O  0.86209989  0.59988621  0.55167260    -0.79600
O1502       O  0.79750690  0.53330391  0.46904389    -0.73200
Al1503     Al  0.85853428  0.62723339  0.51024700     1.90100
O1504       O  0.81125588  0.53060208  0.53948345    -0.72300
O1505       O  0.72078506  0.52901158  0.48136207    -0.72100
O1506       O  0.73858261  0.53307623  0.55174739    -0.77800
O1507       O  0.73657682  0.59758395  0.46904956    -0.76000
O1508       O  0.79864009  0.59649196  0.51011453    -1.12100
O1509       O  0.80901177  0.67433296  0.48132163    -0.71300
C1510       C  0.84204152  0.68025444  0.46320008     0.99400
C1511       C  0.84276773  0.55871530  0.55826173     0.95800
Al1512     Al  0.76947129  0.53659814  0.51031597     1.55600
O1513       O  0.86456913  0.67504078  0.53941455    -0.75900
C1514       C  0.71485590  0.55613036  0.46326883     1.00000
C1515       C  0.83895284  0.55303879  0.46322032     0.94900
O1516       O  0.86609062  0.58611575  0.48127958    -0.81200
C1517       C  0.74183940  0.81579191  0.41241086    -0.12200
C1518       C  0.76271435  0.82719212  0.38565073    -0.13700
C1519       C  0.74737576  0.82142489  0.56557974    -0.12200
C1520       C  0.77150810  0.83293489  0.59070168    -0.13700
C1521       C  0.86533608  0.53224228  0.61510652    -0.12200
C1522       C  0.85588179  0.54366124  0.58835442    -0.13700
C1523       C  0.85559928  0.53801031  0.43518924    -0.12200
C1524       C  0.86819083  0.52646810  0.41006122    -0.13700
C1525       C  0.57448730  0.65289597  0.41257774    -0.12200
C1526       C  0.56504212  0.63202959  0.38582419    -0.13700
C1527       C  0.56223234  0.62348693  0.59087086    -0.12200
C1528       C  0.57484172  0.64761781  0.56573950    -0.13700
C1529       C  0.68318052  0.53944774  0.43524864    -0.12200
C1530       C  0.65904562  0.52681686  0.41012951    -0.13700
C1531       C  0.68857544  0.53930289  0.58841514    -0.12200
C1532       C  0.66771198  0.52984321  0.61517857    -0.13700
C1533       C  0.57358939  0.82015700  0.56573814    -0.12200
C1534       C  0.56211481  0.83281863  0.59086255    -0.13700
C1535       C  0.56757926  0.82975002  0.38581957    -0.12200
C1536       C  0.57895918  0.82026058  0.41257272    -0.13700
C1537       C  0.86295932  0.72747959  0.61507394    -0.12200
C1538       C  0.85156252  0.70660713  0.58832262    -0.13700
C1539       C  0.85700647  0.71191356  0.43515759    -0.12200
C1540       C  0.86848188  0.73604527  0.41002745    -0.13700
C1541       C  0.88068083  0.76071296  0.71036304     0.87600
C1542       C  0.93113515  0.79093304  0.70506814    -0.52700
C1543       C  0.94203913  0.81214603  0.00691978     0.10500
C1544       C  0.90124941  0.80171673  0.98405106     0.21500
C1545       C  0.86081608  0.79130078  0.70515784    -0.53400
C1546       C  0.87117408  0.81248142  0.00694862     0.10600
C1547       C  0.86459092  0.72895813  0.67894155    -0.52900
C1548       C  0.87544040  0.75067158  0.98115818     0.11200
H1549       H  0.95598009  0.79296162  0.72347613     0.15700
H1550       H  0.90997035  0.81907694  0.95848411     0.00600
H1551       H  0.83810728  0.79347280  0.72360022     0.16000
H1552       H  0.84611719  0.69266707  0.01444518     0.15800
C1553       C  0.54991267  0.84529151  0.95718902     0.87600
C1554       C  0.49945710  0.82506825  0.96247441    -0.52700
C1555       C  0.98855872  0.83538915  0.66061801     0.10500
C1556       C  0.52934869  0.86573452  0.68349324     0.21500
C1557       C  0.56980757  0.89575753  0.96239404    -0.53400
C1558       C  0.55944391  0.90657829  0.66059786     0.10600
C1559       C  0.56597154  0.82960954  0.65528469    -0.52900
C1560       C  0.55512447  0.84047692  0.68639689     0.11200
H1561       H  0.97460711  0.80225824  0.94406307     0.15700
H1562       H  0.52063281  0.87437985  0.70905664     0.01400
H1563       H  0.59251986  0.92064711  0.94395090     0.16000
H1564       H  0.58442366  0.81177793  0.65312273     0.15800
C1565       C  0.63439937  0.51434857  0.71046452     0.87600
C1566       C  0.60418150  0.53457271  0.70515362    -0.52700
C1567       C  0.58299598  0.52424244  0.00700152     0.10500
C1568       C  0.59345393  0.99388794  0.98414807     0.21500
C1569       C  0.60381429  0.96388136  0.70526485    -0.53400
C1570       C  0.58266543  0.95305088  0.00705425     0.10600
C1571       C  0.66618340  0.53002092  0.67904553    -0.52900
C1572       C  0.64449851  0.51914259  0.98126137     0.11200
H1573       H  0.60212344  0.55738370  0.72355517     0.15700
H1574       H  0.57611968  0.98523465  0.95857902     0.01400
H1575       H  0.60161276  0.93899697  0.72371463     0.16000
H1576       H  0.70247168  0.54784892  0.01455095     0.15800
C1577       C  0.54975737  0.59881605  0.95719975     0.87600
C1578       C  0.57006697  0.56867923  0.96252820    -0.52700
C1579       C  0.55972079  0.54745989  0.66067575     0.10500
C1580       C  0.52925753  0.55780153  0.68350682     0.21500
C1581       C  0.49929765  0.56814423  0.96236441    -0.53400
C1582       C  0.98843791  0.54695799  0.66056909     0.10600
C1583       C  0.56531425  0.63056508  0.98862403    -0.52900
C1584       C  0.55441642  0.60884554  0.68640505     0.11200
H1585       H  0.59294053  0.56669819  0.94414035     0.15700
H1586       H  0.52058967  0.54043629  0.70907166     0.01400
H1587       H  0.97443008  0.56593126  0.94390104     0.16000
H1588       H  0.58308670  0.66685529  0.65312393     0.15800
C1589       C  0.88064619  0.51427193  0.71038960     0.87600
C1590       C  0.86030631  0.96381248  0.70504412    -0.52700
C1591       C  0.87064238  0.95295472  0.00688816     0.10500
C1592       C  0.90111413  0.99377833  0.98406602     0.21500
C1593       C  0.93110270  0.53405281  0.70521622    -0.53400
C1594       C  0.94194375  0.52373086  0.00700519     0.10600
C1595       C  0.86510224  0.53049208  0.67897524    -0.52900
C1596       C  0.87597979  0.51967997  0.98118582     0.11200
H1597       H  0.83743906  0.93894101  0.72343232     0.15700
H1598       H  0.90976883  0.98509103  0.95849453     0.01400
H1599       H  0.95598259  0.55668862  0.72368370     0.16000
H1600       H  0.84734391  0.54901505  0.01448813     0.15800
C1601       C  0.79612554  0.84512785  0.95704885     0.87600
C1602       C  0.82625748  0.89558867  0.96238947    -0.52700
C1603       C  0.84740800  0.90645654  0.66055545     0.10500
C1604       C  0.83701015  0.86564019  0.68339145     0.21500
C1605       C  0.82678647  0.82534645  0.96225730    -0.53400
C1606       C  0.84790705  0.83567857  0.66048061     0.10600
C1607       C  0.76431017  0.82891711  0.65511556    -0.52900
C1608       C  0.78596183  0.83973986  0.68624705     0.11200
H1609       H  0.82829169  0.92045457  0.94399174     0.15700
H1610       H  0.85431808  0.87433590  0.70897114     0.01400
H1611       H  0.82905388  0.80270967  0.94380331     0.16000
H1612       H  0.72802418  0.81039387  0.65292077     0.15800
O1613       O  0.69398281  0.82618367  0.86513320    -0.80700
C1614       C  0.58762195  0.68107444  0.77599604     0.98600
O1615       O  0.61911548  0.68445083  0.79477878    -0.69800
O1616       O  0.69181897  0.75958350  0.78244561    -0.73400
Al1617     Al  0.66096035  0.73225877  0.82390259     1.49000
C1618       C  0.71369398  0.80075383  0.77586082     0.93900
O1619       O  0.63521608  0.82645204  0.78250731    -0.79600
O1620       O  0.56875223  0.76198510  0.86525761    -0.73200
Al1621     Al  0.66261844  0.82291412  0.82389857     1.90100
O1622       O  0.56593688  0.77567234  0.79481572    -0.72300
O1623       O  0.56436736  0.68521221  0.85296606    -0.72100
O1624       O  0.56833594  0.70295160  0.78257065    -0.77800
O1625       O  0.63294316  0.70097526  0.86519758    -0.76000
O1626       O  0.63184131  0.76302140  0.82410340    -1.12100
O1627       O  0.70970460  0.77336749  0.85281587    -0.71300
C1628       C  0.71568053  0.80643398  0.87090470     0.99400
C1629       C  0.59403555  0.80714942  0.77598456     0.95800
Al1630     Al  0.57194702  0.73389005  0.82398890     1.55600
O1631       O  0.71035927  0.82887975  0.79467100    -0.75900
C1632       C  0.59149806  0.67927679  0.87102962     1.00000
C1633       C  0.58852964  0.80344186  0.87103067     0.94900
O1634       O  0.62157650  0.83053900  0.85290848    -0.81200
O1635       O  0.86177334  0.65853885  0.80230628    -0.80700
C1636       C  0.71673427  0.55239373  0.89164319     0.98600
O1637       O  0.72011730  0.58387114  0.87282606    -0.69800
O1638       O  0.79529788  0.65655634  0.88504293    -0.73400
Al1639     Al  0.76791280  0.62564788  0.84363479     1.49000
C1640       C  0.83647763  0.67842365  0.89157483     0.93900
O1641       O  0.86209985  0.59988607  0.88500586    -0.79600
O1642       O  0.79750694  0.53330390  0.80237718    -0.73200
Al1643     Al  0.85853426  0.62723335  0.84358029     1.90100
O1644       O  0.81125585  0.53060194  0.87281675    -0.72300
O1645       O  0.72078501  0.52901143  0.81469529    -0.72100
O1646       O  0.73858254  0.53307595  0.88508064    -0.77800
O1647       O  0.73657676  0.59758397  0.80238292    -0.76000
O1648       O  0.79864008  0.59649199  0.84344794    -1.12100
O1649       O  0.80901159  0.67433277  0.81465500    -0.71300
C1650       C  0.84204137  0.68025425  0.79653341     0.99400
C1651       C  0.84276759  0.55871517  0.89159509     0.95800
Al1652     Al  0.76947128  0.53659809  0.84364927     1.55600
O1653       O  0.86456900  0.67504057  0.87274801    -0.75900
C1654       C  0.71485588  0.55613033  0.79660217     1.00000
C1655       C  0.83895290  0.55303878  0.79655365     0.94900
O1656       O  0.86609063  0.58611570  0.81461290    -0.81200
C1657       C  0.74183945  0.81579195  0.74574424    -0.12200
C1658       C  0.76271443  0.82719200  0.71898411    -0.13700
C1659       C  0.74737580  0.82142487  0.89891312    -0.12200
C1660       C  0.77150816  0.83293497  0.92403505    -0.13700
C1661       C  0.86533594  0.53224213  0.94843986    -0.12200
C1662       C  0.85588180  0.54366111  0.92168769    -0.13700
C1663       C  0.85559949  0.53801051  0.76852257    -0.12200
C1664       C  0.86819082  0.52646799  0.74339461    -0.13700
C1665       C  0.57448725  0.65289599  0.74591107    -0.12200
C1666       C  0.56504193  0.63202957  0.71915754    -0.13700
C1667       C  0.56223220  0.62348678  0.92420415    -0.12200
C1668       C  0.57484165  0.64761786  0.89907289    -0.13700
C1669       C  0.68318064  0.53944775  0.76858200    -0.12200
C1670       C  0.65904556  0.52681679  0.74346300    -0.13700
C1671       C  0.68857546  0.53930265  0.92174847    -0.12200
C1672       C  0.66771201  0.52984311  0.94851191    -0.13700
C1673       C  0.57358955  0.82015712  0.89907157    -0.12200
C1674       C  0.56211482  0.83281870  0.92419591    -0.13700
C1675       C  0.56757929  0.82974996  0.71915294    -0.12200
C1676       C  0.57895920  0.82026063  0.74590614    -0.13700
C1677       C  0.86295923  0.72747956  0.94840742    -0.12200
C1678       C  0.85156241  0.70660705  0.92165609    -0.13700
C1679       C  0.85700650  0.71191345  0.76849090    -0.12200
C1680       C  0.86848181  0.73604514  0.74336072    -0.13700
loop_ 
_geom_bond_atom_site_label_1 
_geom_bond_atom_site_label_2 
_geom_bond_distance 
_geom_bond_site_symmetry_2 
_ccdc_geom_bond_type 
C1            C2   1.530       .  S
C1            C7   1.536       .  S
C1            C5   1.531       .  S
C1          C140   1.467       .  S
C2            H9   1.087       .  S
C2          C283   1.366       .  D
C3            C4   1.541       .  S
C3          C142   1.366       .  D
C3          C155   1.476       .  S
C4            C8   1.528       .  S
C4            C6   1.541       .  S
C4           H10   1.111       .  S
C5           H11   1.086       .  S
C5          C286   1.368       .  D
C6          C145   1.368       .  D
C6          C206   1.477       .  S
C7          H292   1.087       .  S
C7          C288   1.361   1_554  D
C8          C147   1.361       .  D
C8          C137   1.438       .  S
H12         C147   1.087       .  S
C13          C14   1.530   1_455  S
C13          C17   1.531       .  S
C13         C159   1.536       .  S
C13         C134   1.467       .  S
C14         H861   1.087       .  S
C14         C995   1.366       .  D
C15         C856   1.541   1_556  S
C15        C1134   1.366       .  D
C15         C283   1.476   1_556  S
C16          C20   1.528       .  S
C16          C18   1.540   1_554  S
C16         C855   1.541   1_454  S
C16          H22   1.111       .  S
C17          H23   1.086       .  S
C17         C158   1.368       .  D
C18         C297   1.368       .  D
C18         C310   1.477   1_556  S
C19         C293   1.536       .  S
C19          H24   1.087       .  S
C19          C20   1.361   1_556  D
C20         C135   1.438       .  S
H21         C854   1.087       .  S
C25          C26   1.530       .  S
C25          C31   1.536       .  S
C25         C449   1.531   1_545  S
C25         C130   1.467       .  S
C26          H33   1.086       .  S
C26         C307   1.366       .  D
C27         C448   1.541   1_545  S
C27         C166   1.366       .  D
C27         C179   1.476       .  S
C28          C30   1.540       .  S
C28         C447   1.541       .  S
C28         C452   1.528       .  S
C28          H34   1.111       .  S
C29         C445   1.531       .  S
C29          H35   1.086       .  S
C29         C310   1.368       .  D
C30         C169   1.368       .  D
C30         C158   1.477       .  S
C31         H316   1.087       .  S
C31         C312   1.361   1_554  D
C32         C448   1.528   1_545  S
C32         C171   1.361       .  D
C32         C132   1.438       .  S
H36         C171   1.087       .  S
C37          C38   1.530       .  S
C37          C43   1.536       .  S
C37          C41   1.531   1_455  S
C37         C127   1.467       .  S
C38          H45   1.087       .  S
C38         C179   1.366       .  D
C39          C40   1.541   1_556  S
C39         C318   1.366       .  D
C39         C307   1.476   1_556  S
C40          C44   1.528       .  S
C40         C882   1.541   1_454  S
C40          H46   1.111       .  S
C41         H887   1.086       .  S
C41        C1022   1.368       .  D
C42         C880   1.541   1_556  S
C42        C1161   1.368       .  D
C42         C334   1.477   1_556  S
C43         H188   1.087       .  S
C43         C184   1.361       .  D
C44         C323   1.361   1_554  D
C44         C126   1.438       .  S
H47         C881   1.086       .  S
H48         C323   1.087       .  S
C49          C55   1.536       .  S
C49          C53   1.531       .  S
C49         C470   1.530   1_545  S
C49         C124   1.467       .  S
C50         C469   1.530       .  S
C50          H57   1.086       .  S
C50         C331   1.366       .  D
C51          C52   1.541       .  S
C51         C190   1.366       .  D
C51         C203   1.476       .  S
C52         C476   1.528       .  S
C52         C474   1.541       .  S
C52          H58   1.111       .  S
C53          H59   1.086       .  S
C53         C334   1.368       .  D
C54         C472   1.541   1_545  S
C54         C193   1.368       .  D
C54         C182   1.477       .  S
C55         H340   1.087       .  S
C55         C336   1.361   1_554  D
C56         C472   1.528   1_545  S
C56         C195   1.361       .  D
C56         C121   1.438       .  S
H60         C195   1.087       .  S
C61          C62   1.530       .  S
C61          C65   1.531       .  S
C61         C207   1.536       .  S
C61         C120   1.467       .  S
C62          H69   1.086       .  S
C62         C203   1.366       .  D
C63          C64   1.541   1_556  S
C63         C342   1.366       .  D
C63         C331   1.476   1_556  S
C64          C68   1.528       .  S
C64          C66   1.541   1_554  S
C64          H70   1.111       .  S
C65          H71   1.086       .  S
C65         C206   1.368       .  D
C66         C345   1.368       .  D
C66         C286   1.477   1_556  S
C67         C341   1.536       .  S
C67          H72   1.087       .  S
C67          C68   1.361   1_556  D
C68         C118   1.438       .  S
O73          C88   1.258       .  A
O73         Al81   1.891       .  S
C74          O84   1.256       .  A
C74          O75   1.260       .  A
C74         C125   1.431       .  S
O75         Al77   1.917       .  S
O76          C78   1.256       .  A
O76         Al77   1.886       .  S
Al77         O85   1.891       .  S
Al77         O87   1.921       .  S
Al77         O86   1.789       .  S
C78          O91   1.260       .  A
C78         C117   1.431       .  S
O79          C89   1.256       .  A
O79         Al81   1.886       .  S
O80          C93   1.258       .  A
O80         Al90   1.891       .  S
Al81         O94   1.920       .  S
Al81         O91   1.917       .  S
Al81         O86   1.789       .  S
O82          C89   1.260       .  A
O82         Al90   1.917       .  S
O83          C92   1.262       .  A
O83         Al90   1.921       .  S
O84         Al90   1.886       .  S
O85          C92   1.258       .  A
O86         Al90   1.789       .  S
O87          C88   1.262       .  A
C88         C119   1.434       .  S
C89         C136   1.431       .  S
C92         C128   1.434       .  S
C93          O94   1.262       .  A
C93         C133   1.434       .  S
O95         C110   1.258       .  A
O95        Al103   1.891       .  S
C96         O106   1.256       .  A
C96          O97   1.260       .  A
C96         C131   1.431       .  S
O97         Al99   1.917       .  S
O98         C100   1.256       .  A
O98         Al99   1.886       .  S
Al99        O107   1.891       .  S
Al99        O109   1.920       .  S
Al99        O108   1.789       .  S
C100        O113   1.261       .  A
C100        C138   1.431       .  S
O101        C111   1.256       .  A
O101       Al103   1.886       .  S
O102        C115   1.258       .  A
O102       Al112   1.891       .  S
Al103       O116   1.921       .  S
Al103       O113   1.917       .  S
Al103       O108   1.789       .  S
O104        C111   1.260       .  A
O104       Al112   1.917       .  S
O105        C114   1.262       .  A
O105       Al112   1.921       .  S
O106       Al112   1.886       .  S
O107        C114   1.258       .  A
O108       Al112   1.789       .  S
O109        C110   1.262       .  A
C110        C139   1.434       .  S
C111        C122   1.431       .  S
C114        C129   1.434       .  S
C115        O116   1.262       .  A
C115        C123   1.434       .  S
C117        C118   1.203       .  T
C119        C120   1.206       .  T
C121        C122   1.203       .  T
C123        C124   1.206       .  T
C125        C126   1.203       .  T
C127        C128   1.206       .  T
C129        C130   1.206       .  T
C131        C132   1.203       .  T
C133        C134   1.206       .  T
C135        C136   1.203       .  T
C137        C138   1.203       .  T
C139        C140   1.206       .  T
C141        C142   1.530       .  S
C141        C147   1.536       .  S
C141        C145   1.531       .  S
C141        C280   1.467       .  S
C142        H149   1.086       .  S
C143        C144   1.541       .  S
C143        C282   1.366       .  D
C143        C295   1.476       .  S
C144        C148   1.528       .  S
C144        C146   1.541       .  S
C144        H150   1.111       .  S
C145        H151   1.086       .  S
C146        C285   1.368       .  D
C146        C346   1.477       .  S
C148        C287   1.361       .  D
C148        C277   1.438       .  S
H152        C287   1.087       .  S
C153        C154   1.530   1_455  S
C153        C299   1.536       .  S
C153        C157   1.531       .  S
C153        C274   1.467       .  S
C154       H1001   1.086       .  S
C154       C1135   1.366       .  D
C155        C996   1.541       .  S
C155        C854   1.366       .  D
C156        C995   1.541   1_455  S
C156        C160   1.528       .  S
C156        C158   1.540       .  S
C156        H162   1.111       .  S
C157        H163   1.086       .  S
C157        C298   1.368       .  D
C159        H164   1.087       .  S
C159        C160   1.361       .  D
C160        C275   1.438       .  S
H161        C994   1.086       .  S
C165        C166   1.530       .  S
C165        C171   1.536       .  S
C165        C589   1.531   1_545  S
C165        C270   1.467       .  S
C166        H173   1.087       .  S
C167        C588   1.541   1_545  S
C167        C306   1.366       .  D
C167        C319   1.476       .  S
C168        C587   1.541       .  S
C168        C592   1.528       .  S
C168        C170   1.540       .  S
C168        H174   1.111       .  S
C169        C585   1.531       .  S
C169        H175   1.086       .  S
C170        C309   1.368       .  D
C170        C298   1.477       .  S
C172        C588   1.528   1_545  S
C172        C311   1.361       .  D
C172        C272   1.438       .  S
H176        C311   1.087       .  S
C177        C178   1.530       .  S
C177        C183   1.536       .  S
C177        C181   1.531   1_455  S
C177        C267   1.467       .  S
C178        H185   1.086       .  S
C178        C319   1.366       .  D
C179        C180   1.541       .  S
C180        C184   1.528       .  S
C180       C1022   1.541   1_455  S
C180        H186   1.111       .  S
C181       H1027   1.086       .  S
C181       C1162   1.368       .  D
C182       C1020   1.541       .  S
C182        C881   1.368       .  D
C183        H328   1.087       .  S
C183        C324   1.361       .  D
C184        C266   1.438       .  S
H187       C1021   1.086       .  S
C189        C610   1.530   1_545  S
C189        C195   1.536       .  S
C189        C193   1.531       .  S
C189        C264   1.467       .  S
C190        C609   1.530       .  S
C190        H197   1.086       .  S
C191        C192   1.541       .  S
C191        C330   1.366       .  D
C191        C343   1.476       .  S
C192        C616   1.528       .  S
C192        C614   1.541       .  S
C192        H198   1.111       .  S
C193        H199   1.086       .  S
C194        C612   1.541   1_545  S
C194        C333   1.368       .  D
C194        C322   1.477       .  S
C196        C612   1.528   1_545  S
C196        C335   1.361       .  D
C196        C261   1.438       .  S
H200        C335   1.087       .  S
C201        C202   1.530       .  S
C201        C347   1.536       .  S
C201        C205   1.531       .  S
C201        C260   1.467       .  S
C202        H209   1.086       .  S
C202        C343   1.366       .  D
C203        C204   1.541       .  S
C204        C208   1.528       .  S
C204        C206   1.541       .  S
C204        H210   1.111       .  S
C205        H211   1.086       .  S
C205        C346   1.368       .  D
C207        H212   1.087       .  S
C207        C208   1.361       .  D
C208        C258   1.438       .  S
O213        C228   1.258       .  A
O213       Al221   1.891       .  S
C214        O224   1.256       .  A
C214        O215   1.260       .  A
C214        C265   1.431       .  S
O215       Al217   1.917       .  S
O216        C218   1.256       .  A
O216       Al217   1.886       .  S
Al217       O225   1.891       .  S
Al217       O227   1.921       .  S
Al217       O226   1.789       .  S
C218        O231   1.260       .  A
C218        C257   1.431       .  S
O219        C229   1.256       .  A
O219       Al221   1.886       .  S
O220        C233   1.258       .  A
O220       Al230   1.891       .  S
Al221       O234   1.920       .  S
Al221       O231   1.917       .  S
Al221       O226   1.789       .  S
O222        C229   1.260       .  A
O222       Al230   1.917       .  S
O223        C232   1.262       .  A
O223       Al230   1.921       .  S
O224       Al230   1.886       .  S
O225        C232   1.258       .  A
O226       Al230   1.789       .  S
O227        C228   1.262       .  A
C228        C259   1.434       .  S
C229        C276   1.431       .  S
C232        C268   1.434       .  S
C233        O234   1.262       .  A
C233        C273   1.434       .  S
O235        C250   1.258       .  A
O235       Al243   1.891       .  S
C236        O246   1.256       .  A
C236        O237   1.260       .  A
C236        C271   1.431       .  S
O237       Al239   1.917       .  S
O238        C240   1.256       .  A
O238       Al239   1.886       .  S
Al239       O247   1.891       .  S
Al239       O249   1.920       .  S
Al239       O248   1.789       .  S
C240        O253   1.261       .  A
C240        C278   1.431       .  S
O241        C251   1.256       .  A
O241       Al243   1.886       .  S
O242        C255   1.258       .  A
O242       Al252   1.891       .  S
Al243       O256   1.921       .  S
Al243       O253   1.917       .  S
Al243       O248   1.789       .  S
O244        C251   1.260       .  A
O244       Al252   1.917       .  S
O245        C254   1.262       .  A
O245       Al252   1.921       .  S
O246       Al252   1.886       .  S
O247        C254   1.258       .  A
O248       Al252   1.789       .  S
O249        C250   1.262       .  A
C250        C279   1.434       .  S
C251        C262   1.431       .  S
C254        C269   1.434       .  S
C255        O256   1.262       .  A
C255        C263   1.434       .  S
C257        C258   1.203       .  T
C259        C260   1.206       .  T
C261        C262   1.203       .  T
C263        C264   1.206       .  T
C265        C266   1.203       .  T
C267        C268   1.206       .  T
C269        C270   1.206       .  T
C271        C272   1.203       .  T
C273        C274   1.206       .  T
C275        C276   1.203       .  T
C277        C278   1.203       .  T
C279        C280   1.206       .  T
C281        C282   1.530       .  S
C281        C287   1.536       .  S
C281        C285   1.531       .  S
C281        C420   1.467       .  S
C282        H289   1.086       .  S
C283        C284   1.541   1_554  S
C284        C288   1.528       .  S
C284        C286   1.541   1_556  S
C284        H290   1.111       .  S
C285        H291   1.086       .  S
C288        C417   1.438       .  S
C293        C294   1.530   1_455  S
C293        C297   1.531       .  S
C293        C414   1.467       .  S
C294       H1141   1.086       .  S
C294        C855   1.366       .  D
C295       C1136   1.541       .  S
C295        C994   1.366       .  D
C296       C1135   1.541   1_455  S
C296        C300   1.528       .  S
C296        C298   1.540       .  S
C296        H302   1.111       .  S
C297        H303   1.086       .  S
C299        H304   1.087       .  S
C299        C300   1.361       .  D
C300        C415   1.438       .  S
H301       C1134   1.086       .  S
C305        C306   1.530       .  S
C305        C311   1.536       .  S
C305        C729   1.531   1_545  S
C305        C410   1.467       .  S
C306        H313   1.086       .  S
C307        C728   1.541   1_544  S
C308        C727   1.541   1_556  S
C308        C732   1.528       .  S
C308        C310   1.540   1_556  S
C308        H314   1.111       .  S
C309        C725   1.531       .  S
C309        H315   1.086       .  S
C312        C728   1.528   1_545  S
C312        C412   1.438       .  S
C317        C318   1.530       .  S
C317        C323   1.536       .  S
C317        C321   1.531   1_455  S
C317        C407   1.467       .  S
C318        H325   1.086       .  S
C319        C320   1.541       .  S
C320        C324   1.528       .  S
C320       C1162   1.541   1_455  S
C320        H326   1.111       .  S
C321       H1167   1.086       .  S
C321        C882   1.368       .  D
C322       C1160   1.541       .  S
C322       C1021   1.368       .  D
C324        C406   1.438       .  S
H327       C1161   1.086       .  S
C329        C750   1.530   1_545  S
C329        C335   1.536       .  S
C329        C333   1.531       .  S
C329        C404   1.467       .  S
C330        C749   1.530       .  S
C330        H337   1.086       .  S
C331        C332   1.541   1_554  S
C332        C756   1.528       .  S
C332        C754   1.541   1_556  S
C332        H338   1.111       .  S
C333        H339   1.086       .  S
C334        C752   1.541   1_544  S
C336        C752   1.528   1_545  S
C336        C401   1.438       .  S
C341        C342   1.530       .  S
C341        C345   1.531       .  S
C341        C400   1.467       .  S
C342        H349   1.086       .  S
C343        C344   1.541       .  S
C344        C348   1.528       .  S
C344        C346   1.541       .  S
C344        H350   1.111       .  S
C345        H351   1.086       .  S
C347        H352   1.087       .  S
C347        C348   1.361       .  D
C348        C398   1.438       .  S
O353        C368   1.258       .  A
O353       Al361   1.891       .  S
C354        O364   1.256       .  A
C354        O355   1.260       .  A
C354        C405   1.431       .  S
O355       Al357   1.917       .  S
O356        C358   1.256       .  A
O356       Al357   1.886       .  S
Al357       O365   1.891       .  S
Al357       O367   1.921       .  S
Al357       O366   1.789       .  S
C358        O371   1.260       .  A
C358        C397   1.431       .  S
O359        C369   1.256       .  A
O359       Al361   1.886       .  S
O360        C373   1.258       .  A
O360       Al370   1.891       .  S
Al361       O374   1.920       .  S
Al361       O371   1.917       .  S
Al361       O366   1.789       .  S
O362        C369   1.260       .  A
O362       Al370   1.917       .  S
O363        C372   1.262       .  A
O363       Al370   1.921       .  S
O364       Al370   1.886       .  S
O365        C372   1.258       .  A
O366       Al370   1.789       .  S
O367        C368   1.262       .  A
C368        C399   1.434       .  S
C369        C416   1.431       .  S
C372        C408   1.434       .  S
C373        O374   1.262       .  A
C373        C413   1.434       .  S
O375        C390   1.258       .  A
O375       Al383   1.891       .  S
C376        O386   1.256       .  A
C376        O377   1.260       .  A
C376        C411   1.431       .  S
O377       Al379   1.917       .  S
O378        C380   1.256       .  A
O378       Al379   1.886       .  S
Al379       O387   1.891       .  S
Al379       O389   1.920       .  S
Al379       O388   1.789       .  S
C380        O393   1.261       .  A
C380        C418   1.431       .  S
O381        C391   1.256       .  A
O381       Al383   1.886       .  S
O382        C395   1.258       .  A
O382       Al392   1.891       .  S
Al383       O396   1.921       .  S
Al383       O393   1.917       .  S
Al383       O388   1.789       .  S
O384        C391   1.260       .  A
O384       Al392   1.917       .  S
O385        C394   1.262       .  A
O385       Al392   1.921       .  S
O386       Al392   1.886       .  S
O387        C394   1.258       .  A
O388       Al392   1.789       .  S
O389        C390   1.262       .  A
C390        C419   1.434       .  S
C391        C402   1.431       .  S
C394        C409   1.434       .  S
C395        O396   1.262       .  A
C395        C403   1.434       .  S
C397        C398   1.203       .  T
C399        C400   1.206       .  T
C401        C402   1.203       .  T
C403        C404   1.206       .  T
C405        C406   1.203       .  T
C407        C408   1.206       .  T
C409        C410   1.206       .  T
C411        C412   1.203       .  T
C413        C414   1.206       .  T
C415        C416   1.203       .  T
C417        C418   1.203       .  T
C419        C420   1.206       .  T
C421        C422   1.530       .  S
C421        C427   1.536       .  S
C421        C425   1.531       .  S
C421        C560   1.467       .  S
C422        H429   1.087       .  S
C422        C703   1.366       .  D
C423        C424   1.541       .  S
C423        C562   1.366       .  D
C423        C575   1.476       .  S
C424        C428   1.528       .  S
C424        C426   1.541       .  S
C424        H430   1.111       .  S
C425        H431   1.086       .  S
C425        C706   1.368       .  D
C426        C565   1.368       .  D
C426        C626   1.477       .  S
C427        H712   1.087       .  S
C427        C708   1.361   1_554  D
C428        C567   1.361       .  D
C428        C557   1.438       .  S
H432        C567   1.087       .  S
C433        C434   1.530   1_455  S
C433        C579   1.536       .  S
C433        C437   1.531       .  S
C433        C554   1.467       .  S
C434       H1281   1.087       .  S
C434       C1415   1.366       .  D
C435       C1276   1.541   1_556  S
C435       C1554   1.366       .  D
C435        C703   1.476   1_556  S
C436       C1275   1.541   1_454  S
C436        C440   1.528       .  S
C436        C438   1.540   1_554  S
C436        H442   1.111       .  S
C437        H443   1.086       .  S
C437        C578   1.368       .  D
C438        C717   1.368       .  D
C438        C730   1.477   1_556  S
C439        C713   1.536       .  S
C439        H444   1.087       .  S
C439        C440   1.361   1_556  D
C440        C555   1.438       .  S
H441       C1274   1.087       .  S
C445        C446   1.530       .  S
C445        C451   1.536       .  S
C445        C550   1.467       .  S
C446        H453   1.086       .  S
C446        C727   1.366       .  D
C447        C586   1.366       .  D
C447        C599   1.476       .  S
C448        C450   1.540       .  S
C448        H454   1.111       .  S
C449        H455   1.086       .  S
C449        C730   1.368       .  D
C450        C589   1.368       .  D
C450        C578   1.477       .  S
C451        H736   1.087       .  S
C451        C732   1.361   1_554  D
C452        C591   1.361       .  D
C452        C552   1.438       .  S
H456        C591   1.087       .  S
C457        C458   1.530       .  S
C457        C463   1.536       .  S
C457        C461   1.531   1_455  S
C457        C547   1.467       .  S
C458        H465   1.087       .  S
C458        C599   1.366       .  D
C459        C460   1.541   1_556  S
C459        C738   1.366       .  D
C459        C727   1.476   1_556  S
C460        C464   1.528       .  S
C460       C1302   1.541   1_454  S
C460        H466   1.111       .  S
C461       H1307   1.086       .  S
C461       C1442   1.368       .  D
C462       C1300   1.541   1_556  S
C462       C1581   1.368       .  D
C462        C754   1.477   1_556  S
C463        H608   1.087       .  S
C463        C604   1.361       .  D
C464        C743   1.361   1_554  D
C464        C546   1.438       .  S
H467       C1301   1.086       .  S
H468        C743   1.087       .  S
C469        C475   1.536       .  S
C469        C473   1.531       .  S
C469        C544   1.467       .  S
C470        H477   1.086       .  S
C470        C751   1.366       .  D
C471        C472   1.541       .  S
C471        C610   1.366       .  D
C471        C623   1.476       .  S
C472        H478   1.111       .  S
C473        H479   1.086       .  S
C473        C754   1.368       .  D
C474        C613   1.368       .  D
C474        C602   1.477       .  S
C475        H760   1.087       .  S
C475        C756   1.361   1_554  D
C476        C615   1.361       .  D
C476        C541   1.438       .  S
H480        C615   1.087       .  S
C481        C482   1.530       .  S
C481        C627   1.536       .  S
C481        C485   1.531       .  S
C481        C540   1.467       .  S
C482        H489   1.086       .  S
C482        C623   1.366       .  D
C483        C484   1.541   1_556  S
C483        C762   1.366       .  D
C483        C751   1.476   1_556  S
C484        C488   1.528       .  S
C484        C486   1.541   1_554  S
C484        H490   1.111       .  S
C485        H491   1.086       .  S
C485        C626   1.368       .  D
C486        C765   1.368       .  D
C486        C706   1.477   1_556  S
C487        C761   1.536       .  S
C487        H492   1.087       .  S
C487        C488   1.361   1_556  D
C488        C538   1.438       .  S
O493        C508   1.258       .  A
O493       Al501   1.891       .  S
C494        O504   1.256       .  A
C494        O495   1.260       .  A
C494        C545   1.431       .  S
O495       Al497   1.917       .  S
O496        C498   1.256       .  A
O496       Al497   1.886       .  S
Al497       O505   1.891       .  S
Al497       O507   1.921       .  S
Al497       O506   1.789       .  S
C498        O511   1.260       .  A
C498        C537   1.431       .  S
O499        C509   1.256       .  A
O499       Al501   1.886       .  S
O500        C513   1.258       .  A
O500       Al510   1.891       .  S
Al501       O514   1.920       .  S
Al501       O511   1.917       .  S
Al501       O506   1.789       .  S
O502        C509   1.260       .  A
O502       Al510   1.917       .  S
O503        C512   1.262       .  A
O503       Al510   1.921       .  S
O504       Al510   1.886       .  S
O505        C512   1.258       .  A
O506       Al510   1.789       .  S
O507        C508   1.262       .  A
C508        C539   1.434       .  S
C509        C556   1.431       .  S
C512        C548   1.434       .  S
C513        O514   1.262       .  A
C513        C553   1.434       .  S
O515        C530   1.258       .  A
O515       Al523   1.891       .  S
C516        O526   1.256       .  A
C516        O517   1.260       .  A
C516        C551   1.431       .  S
O517       Al519   1.917       .  S
O518        C520   1.256       .  A
O518       Al519   1.886       .  S
Al519       O527   1.891       .  S
Al519       O529   1.920       .  S
Al519       O528   1.789       .  S
C520        O533   1.261       .  A
C520        C558   1.431       .  S
O521        C531   1.256       .  A
O521       Al523   1.886       .  S
O522        C535   1.258       .  A
O522       Al532   1.891       .  S
Al523       O536   1.921       .  S
Al523       O533   1.917       .  S
Al523       O528   1.789       .  S
O524        C531   1.260       .  A
O524       Al532   1.917       .  S
O525        C534   1.262       .  A
O525       Al532   1.921       .  S
O526       Al532   1.886       .  S
O527        C534   1.258       .  A
O528       Al532   1.789       .  S
O529        C530   1.262       .  A
C530        C559   1.434       .  S
C531        C542   1.431       .  S
C534        C549   1.434       .  S
C535        O536   1.262       .  A
C535        C543   1.434       .  S
C537        C538   1.203       .  T
C539        C540   1.206       .  T
C541        C542   1.203       .  T
C543        C544   1.206       .  T
C545        C546   1.203       .  T
C547        C548   1.206       .  T
C549        C550   1.206       .  T
C551        C552   1.203       .  T
C553        C554   1.206       .  T
C555        C556   1.203       .  T
C557        C558   1.203       .  T
C559        C560   1.206       .  T
C561        C562   1.530       .  S
C561        C567   1.536       .  S
C561        C565   1.531       .  S
C561        C700   1.467       .  S
C562        H569   1.087       .  S
C563        C564   1.541       .  S
C563        C702   1.366       .  D
C563        C715   1.476       .  S
C564        C568   1.528       .  S
C564        C566   1.541       .  S
C564        H570   1.111       .  S
C565        H571   1.086       .  S
C566        C705   1.368       .  D
C566        C766   1.477       .  S
C568        C707   1.361       .  D
C568        C697   1.438       .  S
H572        C707   1.087       .  S
C573        C574   1.530   1_455  S
C573        C719   1.536       .  S
C573        C577   1.531       .  S
C573        C694   1.467       .  S
C574       H1421   1.086       .  S
C574       C1555   1.366       .  D
C575       C1416   1.541       .  S
C575       C1274   1.366       .  D
C576       C1415   1.541   1_455  S
C576        C580   1.528       .  S
C576        C578   1.540       .  S
C576        H582   1.111       .  S
C577        H583   1.086       .  S
C577        C718   1.368       .  D
C579        H584   1.087       .  S
C579        C580   1.361       .  D
C580        C695   1.438       .  S
H581       C1414   1.086       .  S
C585        C586   1.530       .  S
C585        C591   1.536       .  S
C585        C690   1.467       .  S
C586        H593   1.086       .  S
C587        C726   1.366       .  D
C587        C739   1.476       .  S
C588        C590   1.540       .  S
C588        H594   1.111       .  S
C589        H595   1.086       .  S
C590        C729   1.368       .  D
C590        C718   1.477       .  S
C592        C731   1.361       .  D
C592        C692   1.438       .  S
H596        C731   1.087       .  S
C597        C598   1.530       .  S
C597        C603   1.536       .  S
C597        C601   1.531   1_455  S
C597        C687   1.467       .  S
C598        H605   1.086       .  S
C598        C739   1.366       .  D
C599        C600   1.541       .  S
C600        C604   1.528       .  S
C600       C1442   1.541   1_455  S
C600        H606   1.111       .  S
C601       H1447   1.086       .  S
C601       C1582   1.368       .  D
C602       C1440   1.541       .  S
C602       C1301   1.368       .  D
C603        H748   1.087       .  S
C603        C744   1.361       .  D
C604        C686   1.438       .  S
H607       C1441   1.086       .  S
C609        C615   1.536       .  S
C609        C613   1.531       .  S
C609        C684   1.467       .  S
C610        H617   1.086       .  S
C611        C612   1.541       .  S
C611        C750   1.366       .  D
C611        C763   1.476       .  S
C612        H618   1.111       .  S
C613        H619   1.086       .  S
C614        C753   1.368       .  D
C614        C742   1.477       .  S
C616        C755   1.361       .  D
C616        C681   1.438       .  S
H620        C755   1.087       .  S
C621        C622   1.530       .  S
C621        C767   1.536       .  S
C621        C625   1.531       .  S
C621        C680   1.467       .  S
C622        H629   1.086       .  S
C622        C763   1.366       .  D
C623        C624   1.541       .  S
C624        C628   1.528       .  S
C624        C626   1.541       .  S
C624        H630   1.111       .  S
C625        H631   1.086       .  S
C625        C766   1.368       .  D
C627        H632   1.087       .  S
C627        C628   1.361       .  D
C628        C678   1.438       .  S
O633        C648   1.258       .  A
O633       Al641   1.891       .  S
C634        O644   1.256       .  A
C634        O635   1.260       .  A
C634        C685   1.431       .  S
O635       Al637   1.917       .  S
O636        C638   1.256       .  A
O636       Al637   1.886       .  S
Al637       O645   1.891       .  S
Al637       O647   1.921       .  S
Al637       O646   1.789       .  S
C638        O651   1.260       .  A
C638        C677   1.431       .  S
O639        C649   1.256       .  A
O639       Al641   1.886       .  S
O640        C653   1.258       .  A
O640       Al650   1.891       .  S
Al641       O654   1.920       .  S
Al641       O651   1.917       .  S
Al641       O646   1.789       .  S
O642        C649   1.260       .  A
O642       Al650   1.917       .  S
O643        C652   1.262       .  A
O643       Al650   1.921       .  S
O644       Al650   1.886       .  S
O645        C652   1.258       .  A
O646       Al650   1.789       .  S
O647        C648   1.262       .  A
C648        C679   1.434       .  S
C649        C696   1.431       .  S
C652        C688   1.434       .  S
C653        O654   1.262       .  A
C653        C693   1.434       .  S
O655        C670   1.258       .  A
O655       Al663   1.891       .  S
C656        O666   1.256       .  A
C656        O657   1.260       .  A
C656        C691   1.431       .  S
O657       Al659   1.917       .  S
O658        C660   1.256       .  A
O658       Al659   1.886       .  S
Al659       O667   1.891       .  S
Al659       O669   1.920       .  S
Al659       O668   1.789       .  S
C660        O673   1.261       .  A
C660        C698   1.431       .  S
O661        C671   1.256       .  A
O661       Al663   1.886       .  S
O662        C675   1.258       .  A
O662       Al672   1.891       .  S
Al663       O676   1.921       .  S
Al663       O673   1.917       .  S
Al663       O668   1.789       .  S
O664        C671   1.260       .  A
O664       Al672   1.917       .  S
O665        C674   1.262       .  A
O665       Al672   1.921       .  S
O666       Al672   1.886       .  S
O667        C674   1.258       .  A
O668       Al672   1.789       .  S
O669        C670   1.262       .  A
C670        C699   1.434       .  S
C671        C682   1.431       .  S
C674        C689   1.434       .  S
C675        O676   1.262       .  A
C675        C683   1.434       .  S
C677        C678   1.203       .  T
C679        C680   1.206       .  T
C681        C682   1.203       .  T
C683        C684   1.206       .  T
C685        C686   1.203       .  T
C687        C688   1.206       .  T
C689        C690   1.206       .  T
C691        C692   1.203       .  T
C693        C694   1.206       .  T
C695        C696   1.203       .  T
C697        C698   1.203       .  T
C699        C700   1.206       .  T
C701        C702   1.530       .  S
C701        C707   1.536       .  S
C701        C705   1.531       .  S
C701        C840   1.467       .  S
C702        H709   1.086       .  S
C703        C704   1.541   1_554  S
C704        C708   1.528       .  S
C704        C706   1.541   1_556  S
C704        H710   1.111       .  S
C705        H711   1.086       .  S
C708        C837   1.438       .  S
C713        C714   1.530   1_455  S
C713        C717   1.531       .  S
C713        C834   1.467       .  S
C714       H1561   1.086       .  S
C714       C1275   1.366       .  D
C715       C1556   1.541       .  S
C715       C1414   1.366       .  D
C716       C1555   1.541   1_455  S
C716        C720   1.528       .  S
C716        C718   1.540       .  S
C716        H722   1.111       .  S
C717        H723   1.086       .  S
C719        H724   1.087       .  S
C719        C720   1.361       .  D
C720        C835   1.438       .  S
H721       C1554   1.086       .  S
C725        C726   1.530       .  S
C725        C731   1.536       .  S
C725        C830   1.467       .  S
C726        H733   1.086       .  S
C728        C730   1.540   1_556  S
C728        H734   1.111       .  S
C729        H735   1.086       .  S
C732        C832   1.438       .  S
C737        C738   1.530       .  S
C737        C743   1.536       .  S
C737        C741   1.531   1_455  S
C737        C827   1.467       .  S
C738        H745   1.086       .  S
C739        C740   1.541       .  S
C740        C744   1.528       .  S
C740       C1582   1.541   1_455  S
C740        H746   1.111       .  S
C741       H1587   1.086       .  S
C741       C1302   1.368       .  D
C742       C1580   1.541       .  S
C742       C1441   1.368       .  D
C744        C826   1.438       .  S
H747       C1581   1.086       .  S
C749        C755   1.536       .  S
C749        C753   1.531       .  S
C749        C824   1.467       .  S
C750        H757   1.086       .  S
C751        C752   1.541   1_554  S
C752        H758   1.111       .  S
C753        H759   1.086       .  S
C756        C821   1.438       .  S
C761        C762   1.530       .  S
C761        C765   1.531       .  S
C761        C820   1.467       .  S
C762        H769   1.086       .  S
C763        C764   1.541       .  S
C764        C768   1.528       .  S
C764        C766   1.541       .  S
C764        H770   1.111       .  S
C765        H771   1.086       .  S
C767        H772   1.087       .  S
C767        C768   1.361       .  D
C768        C818   1.438       .  S
O773        C788   1.258       .  A
O773       Al781   1.891       .  S
C774        O784   1.256       .  A
C774        O775   1.260       .  A
C774        C825   1.431       .  S
O775       Al777   1.917       .  S
O776        C778   1.256       .  A
O776       Al777   1.886       .  S
Al777       O785   1.891       .  S
Al777       O787   1.921       .  S
Al777       O786   1.789       .  S
C778        O791   1.260       .  A
C778        C817   1.431       .  S
O779        C789   1.256       .  A
O779       Al781   1.886       .  S
O780        C793   1.258       .  A
O780       Al790   1.891       .  S
Al781       O794   1.920       .  S
Al781       O791   1.917       .  S
Al781       O786   1.789       .  S
O782        C789   1.260       .  A
O782       Al790   1.917       .  S
O783        C792   1.262       .  A
O783       Al790   1.921       .  S
O784       Al790   1.886       .  S
O785        C792   1.258       .  A
O786       Al790   1.789       .  S
O787        C788   1.262       .  A
C788        C819   1.434       .  S
C789        C836   1.431       .  S
C792        C828   1.434       .  S
C793        O794   1.262       .  A
C793        C833   1.434       .  S
O795        C810   1.258       .  A
O795       Al803   1.891       .  S
C796        O806   1.256       .  A
C796        O797   1.260       .  A
C796        C831   1.431       .  S
O797       Al799   1.917       .  S
O798        C800   1.256       .  A
O798       Al799   1.886       .  S
Al799       O807   1.891       .  S
Al799       O809   1.920       .  S
Al799       O808   1.789       .  S
C800        O813   1.261       .  A
C800        C838   1.431       .  S
O801        C811   1.256       .  A
O801       Al803   1.886       .  S
O802        C815   1.258       .  A
O802       Al812   1.891       .  S
Al803       O816   1.921       .  S
Al803       O813   1.917       .  S
Al803       O808   1.789       .  S
O804        C811   1.260       .  A
O804       Al812   1.917       .  S
O805        C814   1.262       .  A
O805       Al812   1.921       .  S
O806       Al812   1.886       .  S
O807        C814   1.258       .  A
O808       Al812   1.789       .  S
O809        C810   1.262       .  A
C810        C839   1.434       .  S
C811        C822   1.431       .  S
C814        C829   1.434       .  S
C815        O816   1.262       .  A
C815        C823   1.434       .  S
C817        C818   1.203       .  T
C819        C820   1.206       .  T
C821        C822   1.203       .  T
C823        C824   1.206       .  T
C825        C826   1.203       .  T
C827        C828   1.206       .  T
C829        C830   1.206       .  T
C831        C832   1.203       .  T
C833        C834   1.206       .  T
C835        C836   1.203       .  T
C837        C838   1.203       .  T
C839        C840   1.206       .  T
C841        C842   1.530       .  S
C841        C847   1.536       .  S
C841        C845   1.531       .  S
C841        C980   1.467       .  S
C842        H849   1.087       .  S
C842       C1123   1.366       .  D
C843        C844   1.541       .  S
C843        C982   1.366       .  D
C843        C995   1.476       .  S
C844        C848   1.528       .  S
C844        C846   1.541       .  S
C844        H850   1.111       .  S
C845        H851   1.086       .  S
C845       C1126   1.368       .  D
C846        C985   1.368       .  D
C846       C1046   1.477       .  S
C847       H1132   1.087       .  S
C847       C1128   1.361   1_554  D
C848        C987   1.361       .  D
C848        C977   1.438       .  S
H852        C987   1.087       .  S
C853        C854   1.530       .  S
C853        C999   1.536       .  S
C853        C857   1.531       .  S
C853        C974   1.467       .  S
C855       C1123   1.476   1_556  S
C856        C860   1.528       .  S
C856        C858   1.540   1_554  S
C856        H862   1.111       .  S
C857        H863   1.086       .  S
C857        C998   1.368       .  D
C858       C1137   1.368       .  D
C858       C1150   1.477   1_556  S
C859       C1133   1.536       .  S
C859        H864   1.087       .  S
C859        C860   1.361   1_556  D
C860        C975   1.438       .  S
C865        C866   1.530       .  S
C865        C871   1.536       .  S
C865       C1289   1.531   1_545  S
C865        C970   1.467       .  S
C866        H873   1.086       .  S
C866       C1147   1.366       .  D
C867       C1288   1.541   1_545  S
C867       C1006   1.366       .  D
C867       C1019   1.476       .  S
C868       C1287   1.541       .  S
C868       C1292   1.528       .  S
C868        C870   1.540       .  S
C868        H874   1.111       .  S
C869       C1285   1.531       .  S
C869        H875   1.086       .  S
C869       C1150   1.368       .  D
C870       C1009   1.368       .  D
C870        C998   1.477       .  S
C871       H1156   1.087       .  S
C871       C1152   1.361   1_554  D
C872       C1288   1.528   1_545  S
C872       C1011   1.361       .  D
C872        C972   1.438       .  S
H876       C1011   1.087       .  S
C877        C878   1.530       .  S
C877        C883   1.536       .  S
C877        C881   1.531       .  S
C877        C967   1.467       .  S
C878        H885   1.087       .  S
C878       C1019   1.366       .  D
C879        C880   1.541   1_556  S
C879       C1158   1.366       .  D
C879       C1147   1.476   1_556  S
C880        C884   1.528       .  S
C880        H886   1.111       .  S
C882       C1174   1.477   1_556  S
C883       H1028   1.087       .  S
C883       C1024   1.361       .  D
C884       C1163   1.361   1_554  D
C884        C966   1.438       .  S
H888       C1163   1.087       .  S
C889       C1310   1.530   1_545  S
C889        C895   1.536       .  S
C889        C893   1.531       .  S
C889        C964   1.467       .  S
C890       C1309   1.530       .  S
C890        H897   1.086       .  S
C890       C1171   1.366       .  D
C891        C892   1.541       .  S
C891       C1030   1.366       .  D
C891       C1043   1.476       .  S
C892       C1316   1.528       .  S
C892       C1314   1.541       .  S
C892        H898   1.111       .  S
C893        H899   1.086       .  S
C893       C1174   1.368       .  D
C894       C1312   1.541   1_545  S
C894       C1033   1.368       .  D
C894       C1022   1.477       .  S
C895       H1180   1.087       .  S
C895       C1176   1.361   1_554  D
C896       C1312   1.528   1_545  S
C896       C1035   1.361       .  D
C896        C961   1.438       .  S
H900       C1035   1.087       .  S
C901        C902   1.530       .  S
C901       C1047   1.536       .  S
C901        C905   1.531       .  S
C901        C960   1.467       .  S
C902        H909   1.086       .  S
C902       C1043   1.366       .  D
C903        C904   1.541   1_556  S
C903       C1182   1.366       .  D
C903       C1171   1.476   1_556  S
C904        C908   1.528       .  S
C904        C906   1.541   1_554  S
C904        H910   1.111       .  S
C905        H911   1.086       .  S
C905       C1046   1.368       .  D
C906       C1185   1.368       .  D
C906       C1126   1.477   1_556  S
C907       C1181   1.536       .  S
C907        H912   1.087       .  S
C907        C908   1.361   1_556  D
C908        C958   1.438       .  S
O913        C928   1.258       .  A
O913       Al921   1.891       .  S
C914        O924   1.256       .  A
C914        O915   1.260       .  A
C914        C965   1.431       .  S
O915       Al917   1.917       .  S
O916        C918   1.256       .  A
O916       Al917   1.886       .  S
Al917       O925   1.891       .  S
Al917       O927   1.921       .  S
Al917       O926   1.789       .  S
C918        O931   1.260       .  A
C918        C957   1.431       .  S
O919        C929   1.256       .  A
O919       Al921   1.886       .  S
O920        C933   1.258       .  A
O920       Al930   1.891       .  S
Al921       O934   1.920       .  S
Al921       O931   1.917       .  S
Al921       O926   1.789       .  S
O922        C929   1.260       .  A
O922       Al930   1.917       .  S
O923        C932   1.262       .  A
O923       Al930   1.921       .  S
O924       Al930   1.886       .  S
O925        C932   1.258       .  A
O926       Al930   1.789       .  S
O927        C928   1.262       .  A
C928        C959   1.434       .  S
C929        C976   1.431       .  S
C932        C968   1.434       .  S
C933        O934   1.262       .  A
C933        C973   1.434       .  S
O935        C950   1.258       .  A
O935       Al943   1.891       .  S
C936        O946   1.256       .  A
C936        O937   1.260       .  A
C936        C971   1.431       .  S
O937       Al939   1.917       .  S
O938        C940   1.256       .  A
O938       Al939   1.886       .  S
Al939       O947   1.891       .  S
Al939       O949   1.920       .  S
Al939       O948   1.789       .  S
C940        O953   1.261       .  A
C940        C978   1.431       .  S
O941        C951   1.256       .  A
O941       Al943   1.886       .  S
O942        C955   1.258       .  A
O942       Al952   1.891       .  S
Al943       O956   1.921       .  S
Al943       O953   1.917       .  S
Al943       O948   1.789       .  S
O944        C951   1.260       .  A
O944       Al952   1.917       .  S
O945        C954   1.262       .  A
O945       Al952   1.921       .  S
O946       Al952   1.886       .  S
O947        C954   1.258       .  A
O948       Al952   1.789       .  S
O949        C950   1.262       .  A
C950        C979   1.434       .  S
C951        C962   1.431       .  S
C954        C969   1.434       .  S
C955        O956   1.262       .  A
C955        C963   1.434       .  S
C957        C958   1.203       .  T
C959        C960   1.206       .  T
C961        C962   1.203       .  T
C963        C964   1.206       .  T
C965        C966   1.203       .  T
C967        C968   1.206       .  T
C969        C970   1.206       .  T
C971        C972   1.203       .  T
C973        C974   1.206       .  T
C975        C976   1.203       .  T
C977        C978   1.203       .  T
C979        C980   1.206       .  T
C981        C982   1.530       .  S
C981        C987   1.536       .  S
C981        C985   1.531       .  S
C981       C1120   1.467       .  S
C982        H989   1.086       .  S
C983        C984   1.541       .  S
C983       C1122   1.366       .  D
C983       C1135   1.476       .  S
C984        C988   1.528       .  S
C984        C986   1.541       .  S
C984        H990   1.111       .  S
C985        H991   1.086       .  S
C986       C1125   1.368       .  D
C986       C1186   1.477       .  S
C988       C1127   1.361       .  D
C988       C1117   1.438       .  S
H992       C1127   1.087       .  S
C993        C994   1.530       .  S
C993       C1139   1.536       .  S
C993        C997   1.531       .  S
C993       C1114   1.467       .  S
C996       C1000   1.528       .  S
C996        C998   1.540       .  S
C996       H1002   1.111       .  S
C997       H1003   1.086       .  S
C997       C1138   1.368       .  D
C999       H1004   1.087       .  S
C999       C1000   1.361       .  D
C1000      C1115   1.438       .  S
C1005      C1006   1.530       .  S
C1005      C1011   1.536       .  S
C1005      C1429   1.531   1_545  S
C1005      C1110   1.467       .  S
C1006      H1013   1.087       .  S
C1007      C1428   1.541   1_545  S
C1007      C1146   1.366       .  D
C1007      C1159   1.476       .  S
C1008      C1427   1.541       .  S
C1008      C1432   1.528       .  S
C1008      C1010   1.540       .  S
C1008      H1014   1.111       .  S
C1009      C1425   1.531       .  S
C1009      H1015   1.086       .  S
C1010      C1149   1.368       .  D
C1010      C1138   1.477       .  S
C1012      C1428   1.528   1_545  S
C1012      C1151   1.361       .  D
C1012      C1112   1.438       .  S
H1016      C1151   1.087       .  S
C1017      C1018   1.530       .  S
C1017      C1023   1.536       .  S
C1017      C1021   1.531       .  S
C1017      C1107   1.467       .  S
C1018      H1025   1.086       .  S
C1018      C1159   1.366       .  D
C1019      C1020   1.541       .  S
C1020      C1024   1.528       .  S
C1020      H1026   1.111       .  S
C1023      H1168   1.087       .  S
C1023      C1164   1.361       .  D
C1024      C1106   1.438       .  S
C1029      C1450   1.530   1_545  S
C1029      C1035   1.536       .  S
C1029      C1033   1.531       .  S
C1029      C1104   1.467       .  S
C1030      C1449   1.530       .  S
C1030      H1037   1.086       .  S
C1031      C1032   1.541       .  S
C1031      C1170   1.366       .  D
C1031      C1183   1.476       .  S
C1032      C1456   1.528       .  S
C1032      C1454   1.541       .  S
C1032      H1038   1.111       .  S
C1033      H1039   1.086       .  S
C1034      C1452   1.541   1_545  S
C1034      C1173   1.368       .  D
C1034      C1162   1.477       .  S
C1036      C1452   1.528   1_545  S
C1036      C1175   1.361       .  D
C1036      C1101   1.438       .  S
H1040      C1175   1.087       .  S
C1041      C1042   1.530       .  S
C1041      C1187   1.536       .  S
C1041      C1045   1.531       .  S
C1041      C1100   1.467       .  S
C1042      H1049   1.086       .  S
C1042      C1183   1.366       .  D
C1043      C1044   1.541       .  S
C1044      C1048   1.528       .  S
C1044      C1046   1.541       .  S
C1044      H1050   1.111       .  S
C1045      H1051   1.086       .  S
C1045      C1186   1.368       .  D
C1047      H1052   1.087       .  S
C1047      C1048   1.361       .  D
C1048      C1098   1.438       .  S
O1053      C1068   1.258       .  A
O1053     Al1061   1.891       .  S
C1054      O1064   1.256       .  A
C1054      O1055   1.260       .  A
C1054      C1105   1.431       .  S
O1055     Al1057   1.917       .  S
O1056      C1058   1.256       .  A
O1056     Al1057   1.886       .  S
Al1057     O1065   1.891       .  S
Al1057     O1067   1.921       .  S
Al1057     O1066   1.789       .  S
C1058      O1071   1.260       .  A
C1058      C1097   1.431       .  S
O1059      C1069   1.256       .  A
O1059     Al1061   1.886       .  S
O1060      C1073   1.258       .  A
O1060     Al1070   1.891       .  S
Al1061     O1074   1.920       .  S
Al1061     O1071   1.917       .  S
Al1061     O1066   1.789       .  S
O1062      C1069   1.260       .  A
O1062     Al1070   1.917       .  S
O1063      C1072   1.262       .  A
O1063     Al1070   1.921       .  S
O1064     Al1070   1.886       .  S
O1065      C1072   1.258       .  A
O1066     Al1070   1.789       .  S
O1067      C1068   1.262       .  A
C1068      C1099   1.434       .  S
C1069      C1116   1.431       .  S
C1072      C1108   1.434       .  S
C1073      O1074   1.262       .  A
C1073      C1113   1.434       .  S
O1075      C1090   1.258       .  A
O1075     Al1083   1.891       .  S
C1076      O1086   1.256       .  A
C1076      O1077   1.260       .  A
C1076      C1111   1.431       .  S
O1077     Al1079   1.917       .  S
O1078      C1080   1.256       .  A
O1078     Al1079   1.886       .  S
Al1079     O1087   1.891       .  S
Al1079     O1089   1.920       .  S
Al1079     O1088   1.789       .  S
C1080      O1093   1.261       .  A
C1080      C1118   1.431       .  S
O1081      C1091   1.256       .  A
O1081     Al1083   1.886       .  S
O1082      C1095   1.258       .  A
O1082     Al1092   1.891       .  S
Al1083     O1096   1.921       .  S
Al1083     O1093   1.917       .  S
Al1083     O1088   1.789       .  S
O1084      C1091   1.260       .  A
O1084     Al1092   1.917       .  S
O1085      C1094   1.262       .  A
O1085     Al1092   1.921       .  S
O1086     Al1092   1.886       .  S
O1087      C1094   1.258       .  A
O1088     Al1092   1.789       .  S
O1089      C1090   1.262       .  A
C1090      C1119   1.434       .  S
C1091      C1102   1.431       .  S
C1094      C1109   1.434       .  S
C1095      O1096   1.262       .  A
C1095      C1103   1.434       .  S
C1097      C1098   1.203       .  T
C1099      C1100   1.206       .  T
C1101      C1102   1.203       .  T
C1103      C1104   1.206       .  T
C1105      C1106   1.203       .  T
C1107      C1108   1.206       .  T
C1109      C1110   1.206       .  T
C1111      C1112   1.203       .  T
C1113      C1114   1.206       .  T
C1115      C1116   1.203       .  T
C1117      C1118   1.203       .  T
C1119      C1120   1.206       .  T
C1121      C1122   1.530       .  S
C1121      C1127   1.536       .  S
C1121      C1125   1.531       .  S
C1121      C1260   1.467       .  S
C1122      H1129   1.086       .  S
C1123      C1124   1.541   1_554  S
C1124      C1128   1.528       .  S
C1124      C1126   1.541   1_556  S
C1124      H1130   1.111       .  S
C1125      H1131   1.086       .  S
C1128      C1257   1.438       .  S
C1133      C1134   1.530       .  S
C1133      C1137   1.531       .  S
C1133      C1254   1.467       .  S
C1136      C1140   1.528       .  S
C1136      C1138   1.540       .  S
C1136      H1142   1.111       .  S
C1137      H1143   1.086       .  S
C1139      H1144   1.087       .  S
C1139      C1140   1.361       .  D
C1140      C1255   1.438       .  S
C1145      C1146   1.530       .  S
C1145      C1151   1.536       .  S
C1145      C1569   1.531   1_545  S
C1145      C1250   1.467       .  S
C1146      H1153   1.087       .  S
C1147      C1568   1.541   1_544  S
C1148      C1567   1.541   1_556  S
C1148      C1572   1.528       .  S
C1148      C1150   1.540   1_556  S
C1148      H1154   1.111       .  S
C1149      C1565   1.531       .  S
C1149      H1155   1.086       .  S
C1152      C1568   1.528   1_545  S
C1152      C1252   1.438       .  S
C1157      C1158   1.530       .  S
C1157      C1163   1.536       .  S
C1157      C1161   1.531       .  S
C1157      C1247   1.467       .  S
C1158      H1165   1.086       .  S
C1159      C1160   1.541       .  S
C1160      C1164   1.528       .  S
C1160      H1166   1.111       .  S
C1164      C1246   1.438       .  S
C1169      C1590   1.530   1_545  S
C1169      C1175   1.536       .  S
C1169      C1173   1.531       .  S
C1169      C1244   1.467       .  S
C1170      C1589   1.530       .  S
C1170      H1177   1.086       .  S
C1171      C1172   1.541   1_554  S
C1172      C1596   1.528       .  S
C1172      C1594   1.541   1_556  S
C1172      H1178   1.111       .  S
C1173      H1179   1.086       .  S
C1174      C1592   1.541   1_544  S
C1176      C1592   1.528   1_545  S
C1176      C1241   1.438       .  S
C1181      C1182   1.530       .  S
C1181      C1185   1.531       .  S
C1181      C1240   1.467       .  S
C1182      H1189   1.086       .  S
C1183      C1184   1.541       .  S
C1184      C1188   1.528       .  S
C1184      C1186   1.541       .  S
C1184      H1190   1.111       .  S
C1185      H1191   1.086       .  S
C1187      H1192   1.087       .  S
C1187      C1188   1.361       .  D
C1188      C1238   1.438       .  S
O1193      C1208   1.258       .  A
O1193     Al1201   1.891       .  S
C1194      O1204   1.256       .  A
C1194      O1195   1.260       .  A
C1194      C1245   1.431       .  S
O1195     Al1197   1.917       .  S
O1196      C1198   1.256       .  A
O1196     Al1197   1.886       .  S
Al1197     O1205   1.891       .  S
Al1197     O1207   1.921       .  S
Al1197     O1206   1.789       .  S
C1198      O1211   1.260       .  A
C1198      C1237   1.431       .  S
O1199      C1209   1.256       .  A
O1199     Al1201   1.886       .  S
O1200      C1213   1.258       .  A
O1200     Al1210   1.891       .  S
Al1201     O1214   1.920       .  S
Al1201     O1211   1.917       .  S
Al1201     O1206   1.789       .  S
O1202      C1209   1.260       .  A
O1202     Al1210   1.917       .  S
O1203      C1212   1.262       .  A
O1203     Al1210   1.921       .  S
O1204     Al1210   1.886       .  S
O1205      C1212   1.258       .  A
O1206     Al1210   1.789       .  S
O1207      C1208   1.262       .  A
C1208      C1239   1.434       .  S
C1209      C1256   1.431       .  S
C1212      C1248   1.434       .  S
C1213      O1214   1.262       .  A
C1213      C1253   1.434       .  S
O1215      C1230   1.258       .  A
O1215     Al1223   1.891       .  S
C1216      O1226   1.256       .  A
C1216      O1217   1.260       .  A
C1216      C1251   1.431       .  S
O1217     Al1219   1.917       .  S
O1218      C1220   1.256       .  A
O1218     Al1219   1.886       .  S
Al1219     O1227   1.891       .  S
Al1219     O1229   1.920       .  S
Al1219     O1228   1.789       .  S
C1220      O1233   1.261       .  A
C1220      C1258   1.431       .  S
O1221      C1231   1.256       .  A
O1221     Al1223   1.886       .  S
O1222      C1235   1.258       .  A
O1222     Al1232   1.891       .  S
Al1223     O1236   1.921       .  S
Al1223     O1233   1.917       .  S
Al1223     O1228   1.789       .  S
O1224      C1231   1.260       .  A
O1224     Al1232   1.917       .  S
O1225      C1234   1.262       .  A
O1225     Al1232   1.921       .  S
O1226     Al1232   1.886       .  S
O1227      C1234   1.258       .  A
O1228     Al1232   1.789       .  S
O1229      C1230   1.262       .  A
C1230      C1259   1.434       .  S
C1231      C1242   1.431       .  S
C1234      C1249   1.434       .  S
C1235      O1236   1.262       .  A
C1235      C1243   1.434       .  S
C1237      C1238   1.203       .  T
C1239      C1240   1.206       .  T
C1241      C1242   1.203       .  T
C1243      C1244   1.206       .  T
C1245      C1246   1.203       .  T
C1247      C1248   1.206       .  T
C1249      C1250   1.206       .  T
C1251      C1252   1.203       .  T
C1253      C1254   1.206       .  T
C1255      C1256   1.203       .  T
C1257      C1258   1.203       .  T
C1259      C1260   1.206       .  T
C1261      C1262   1.530       .  S
C1261      C1267   1.536       .  S
C1261      C1265   1.531       .  S
C1261      C1400   1.467       .  S
C1262      H1269   1.087       .  S
C1262      C1543   1.366       .  D
C1263      C1264   1.541       .  S
C1263      C1402   1.366       .  D
C1263      C1415   1.476       .  S
C1264      C1268   1.528       .  S
C1264      C1266   1.541       .  S
C1264      H1270   1.111       .  S
C1265      H1271   1.086       .  S
C1265      C1546   1.368       .  D
C1266      C1405   1.368       .  D
C1266      C1466   1.477       .  S
C1267      H1552   1.087       .  S
C1267      C1548   1.361   1_554  D
C1268      C1407   1.361       .  D
C1268      C1397   1.438       .  S
H1272      C1407   1.087       .  S
C1273      C1274   1.530       .  S
C1273      C1419   1.536       .  S
C1273      C1277   1.531       .  S
C1273      C1394   1.467       .  S
C1275      C1543   1.476   1_556  S
C1276      C1280   1.528       .  S
C1276      C1278   1.540   1_554  S
C1276      H1282   1.111       .  S
C1277      H1283   1.086       .  S
C1277      C1418   1.368       .  D
C1278      C1557   1.368       .  D
C1278      C1570   1.477   1_556  S
C1279      C1553   1.536       .  S
C1279      H1284   1.087       .  S
C1279      C1280   1.361   1_556  D
C1280      C1395   1.438       .  S
C1285      C1286   1.530       .  S
C1285      C1291   1.536       .  S
C1285      C1390   1.467       .  S
C1286      H1293   1.086       .  S
C1286      C1567   1.366       .  D
C1287      C1426   1.366       .  D
C1287      C1439   1.476       .  S
C1288      C1290   1.540       .  S
C1288      H1294   1.111       .  S
C1289      H1295   1.086       .  S
C1289      C1570   1.368       .  D
C1290      C1429   1.368       .  D
C1290      C1418   1.477       .  S
C1291      H1576   1.087       .  S
C1291      C1572   1.361   1_554  D
C1292      C1431   1.361       .  D
C1292      C1392   1.438       .  S
H1296      C1431   1.087       .  S
C1297      C1298   1.530       .  S
C1297      C1303   1.536       .  S
C1297      C1301   1.531       .  S
C1297      C1387   1.467       .  S
C1298      H1305   1.087       .  S
C1298      C1439   1.366       .  D
C1299      C1300   1.541   1_556  S
C1299      C1578   1.366       .  D
C1299      C1567   1.476   1_556  S
C1300      C1304   1.528       .  S
C1300      H1306   1.111       .  S
C1302      C1594   1.477   1_556  S
C1303      H1448   1.087       .  S
C1303      C1444   1.361       .  D
C1304      C1583   1.361   1_554  D
C1304      C1386   1.438       .  S
H1308      C1583   1.087       .  S
C1309      C1315   1.536       .  S
C1309      C1313   1.531       .  S
C1309      C1384   1.467       .  S
C1310      H1317   1.086       .  S
C1310      C1591   1.366       .  D
C1311      C1312   1.541       .  S
C1311      C1450   1.366       .  D
C1311      C1463   1.476       .  S
C1312      H1318   1.111       .  S
C1313      H1319   1.086       .  S
C1313      C1594   1.368       .  D
C1314      C1453   1.368       .  D
C1314      C1442   1.477       .  S
C1315      H1600   1.087       .  S
C1315      C1596   1.361   1_554  D
C1316      C1455   1.361       .  D
C1316      C1381   1.438       .  S
H1320      C1455   1.087       .  S
C1321      C1322   1.530       .  S
C1321      C1467   1.536       .  S
C1321      C1325   1.531       .  S
C1321      C1380   1.467       .  S
C1322      H1329   1.086       .  S
C1322      C1463   1.366       .  D
C1323      C1324   1.541   1_556  S
C1323      C1602   1.366       .  D
C1323      C1591   1.476   1_556  S
C1324      C1328   1.528       .  S
C1324      C1326   1.541   1_554  S
C1324      H1330   1.111       .  S
C1325      H1331   1.086       .  S
C1325      C1466   1.368       .  D
C1326      C1605   1.368       .  D
C1326      C1546   1.477   1_556  S
C1327      C1601   1.536       .  S
C1327      H1332   1.087       .  S
C1327      C1328   1.361   1_556  D
C1328      C1378   1.438       .  S
O1333      C1348   1.258       .  A
O1333     Al1341   1.891       .  S
C1334      O1344   1.256       .  A
C1334      O1335   1.260       .  A
C1334      C1385   1.431       .  S
O1335     Al1337   1.917       .  S
O1336      C1338   1.256       .  A
O1336     Al1337   1.886       .  S
Al1337     O1345   1.891       .  S
Al1337     O1347   1.921       .  S
Al1337     O1346   1.789       .  S
C1338      O1351   1.260       .  A
C1338      C1377   1.431       .  S
O1339      C1349   1.256       .  A
O1339     Al1341   1.886       .  S
O1340      C1353   1.258       .  A
O1340     Al1350   1.891       .  S
Al1341     O1354   1.920       .  S
Al1341     O1351   1.917       .  S
Al1341     O1346   1.789       .  S
O1342      C1349   1.260       .  A
O1342     Al1350   1.917       .  S
O1343      C1352   1.262       .  A
O1343     Al1350   1.921       .  S
O1344     Al1350   1.886       .  S
O1345      C1352   1.258       .  A
O1346     Al1350   1.789       .  S
O1347      C1348   1.262       .  A
C1348      C1379   1.434       .  S
C1349      C1396   1.431       .  S
C1352      C1388   1.434       .  S
C1353      O1354   1.262       .  A
C1353      C1393   1.434       .  S
O1355      C1370   1.258       .  A
O1355     Al1363   1.891       .  S
C1356      O1366   1.256       .  A
C1356      O1357   1.260       .  A
C1356      C1391   1.431       .  S
O1357     Al1359   1.917       .  S
O1358      C1360   1.256       .  A
O1358     Al1359   1.886       .  S
Al1359     O1367   1.891       .  S
Al1359     O1369   1.920       .  S
Al1359     O1368   1.789       .  S
C1360      O1373   1.261       .  A
C1360      C1398   1.431       .  S
O1361      C1371   1.256       .  A
O1361     Al1363   1.886       .  S
O1362      C1375   1.258       .  A
O1362     Al1372   1.891       .  S
Al1363     O1376   1.921       .  S
Al1363     O1373   1.917       .  S
Al1363     O1368   1.789       .  S
O1364      C1371   1.260       .  A
O1364     Al1372   1.917       .  S
O1365      C1374   1.262       .  A
O1365     Al1372   1.921       .  S
O1366     Al1372   1.886       .  S
O1367      C1374   1.258       .  A
O1368     Al1372   1.789       .  S
O1369      C1370   1.262       .  A
C1370      C1399   1.434       .  S
C1371      C1382   1.431       .  S
C1374      C1389   1.434       .  S
C1375      O1376   1.262       .  A
C1375      C1383   1.434       .  S
C1377      C1378   1.203       .  T
C1379      C1380   1.206       .  T
C1381      C1382   1.203       .  T
C1383      C1384   1.206       .  T
C1385      C1386   1.203       .  T
C1387      C1388   1.206       .  T
C1389      C1390   1.206       .  T
C1391      C1392   1.203       .  T
C1393      C1394   1.206       .  T
C1395      C1396   1.203       .  T
C1397      C1398   1.203       .  T
C1399      C1400   1.206       .  T
C1401      C1402   1.530       .  S
C1401      C1407   1.536       .  S
C1401      C1405   1.531       .  S
C1401      C1540   1.467       .  S
C1402      H1409   1.086       .  S
C1403      C1404   1.541       .  S
C1403      C1542   1.366       .  D
C1403      C1555   1.476       .  S
C1404      C1408   1.528       .  S
C1404      C1406   1.541       .  S
C1404      H1410   1.111       .  S
C1405      H1411   1.086       .  S
C1406      C1545   1.368       .  D
C1406      C1606   1.477       .  S
C1408      C1547   1.361       .  D
C1408      C1537   1.438       .  S
H1412      C1547   1.087       .  S
C1413      C1414   1.530       .  S
C1413      C1559   1.536       .  S
C1413      C1417   1.531       .  S
C1413      C1534   1.467       .  S
C1416      C1420   1.528       .  S
C1416      C1418   1.540       .  S
C1416      H1422   1.111       .  S
C1417      H1423   1.086       .  S
C1417      C1558   1.368       .  D
C1419      H1424   1.087       .  S
C1419      C1420   1.361       .  D
C1420      C1535   1.438       .  S
C1425      C1426   1.530       .  S
C1425      C1431   1.536       .  S
C1425      C1530   1.467       .  S
C1426      H1433   1.086       .  S
C1427      C1566   1.366       .  D
C1427      C1579   1.476       .  S
C1428      C1430   1.540       .  S
C1428      H1434   1.111       .  S
C1429      H1435   1.086       .  S
C1430      C1569   1.368       .  D
C1430      C1558   1.477       .  S
C1432      C1571   1.361       .  D
C1432      C1532   1.438       .  S
H1436      C1571   1.087       .  S
C1437      C1438   1.530       .  S
C1437      C1443   1.536       .  S
C1437      C1441   1.531       .  S
C1437      C1527   1.467       .  S
C1438      H1445   1.087       .  S
C1438      C1579   1.366       .  D
C1439      C1440   1.541       .  S
C1440      C1444   1.528       .  S
C1440      H1446   1.111       .  S
C1443      H1588   1.087       .  S
C1443      C1584   1.361       .  D
C1444      C1526   1.438       .  S
C1449      C1455   1.536       .  S
C1449      C1453   1.531       .  S
C1449      C1524   1.467       .  S
C1450      H1457   1.086       .  S
C1451      C1452   1.541       .  S
C1451      C1590   1.366       .  D
C1451      C1603   1.476       .  S
C1452      H1458   1.111       .  S
C1453      H1459   1.086       .  S
C1454      C1593   1.368       .  D
C1454      C1582   1.477       .  S
C1456      C1595   1.361       .  D
C1456      C1521   1.438       .  S
H1460      C1595   1.087       .  S
C1461      C1462   1.530       .  S
C1461      C1607   1.536       .  S
C1461      C1465   1.531       .  S
C1461      C1520   1.467       .  S
C1462      H1469   1.086       .  S
C1462      C1603   1.366       .  D
C1463      C1464   1.541       .  S
C1464      C1468   1.528       .  S
C1464      C1466   1.541       .  S
C1464      H1470   1.111       .  S
C1465      H1471   1.086       .  S
C1465      C1606   1.368       .  D
C1467      H1472   1.087       .  S
C1467      C1468   1.361       .  D
C1468      C1518   1.438       .  S
O1473      C1488   1.258       .  A
O1473     Al1481   1.891       .  S
C1474      O1484   1.256       .  A
C1474      O1475   1.260       .  A
C1474      C1525   1.431       .  S
O1475     Al1477   1.917       .  S
O1476      C1478   1.256       .  A
O1476     Al1477   1.886       .  S
Al1477     O1485   1.891       .  S
Al1477     O1487   1.921       .  S
Al1477     O1486   1.789       .  S
C1478      O1491   1.260       .  A
C1478      C1517   1.431       .  S
O1479      C1489   1.256       .  A
O1479     Al1481   1.886       .  S
O1480      C1493   1.258       .  A
O1480     Al1490   1.891       .  S
Al1481     O1494   1.920       .  S
Al1481     O1491   1.917       .  S
Al1481     O1486   1.789       .  S
O1482      C1489   1.260       .  A
O1482     Al1490   1.917       .  S
O1483      C1492   1.262       .  A
O1483     Al1490   1.921       .  S
O1484     Al1490   1.886       .  S
O1485      C1492   1.258       .  A
O1486     Al1490   1.789       .  S
O1487      C1488   1.262       .  A
C1488      C1519   1.434       .  S
C1489      C1536   1.431       .  S
C1492      C1528   1.434       .  S
C1493      O1494   1.262       .  A
C1493      C1533   1.434       .  S
O1495      C1510   1.258       .  A
O1495     Al1503   1.891       .  S
C1496      O1506   1.256       .  A
C1496      O1497   1.260       .  A
C1496      C1531   1.431       .  S
O1497     Al1499   1.917       .  S
O1498      C1500   1.256       .  A
O1498     Al1499   1.886       .  S
Al1499     O1507   1.891       .  S
Al1499     O1509   1.920       .  S
Al1499     O1508   1.789       .  S
C1500      O1513   1.261       .  A
C1500      C1538   1.431       .  S
O1501      C1511   1.256       .  A
O1501     Al1503   1.886       .  S
O1502      C1515   1.258       .  A
O1502     Al1512   1.891       .  S
Al1503     O1516   1.921       .  S
Al1503     O1513   1.917       .  S
Al1503     O1508   1.789       .  S
O1504      C1511   1.260       .  A
O1504     Al1512   1.917       .  S
O1505      C1514   1.262       .  A
O1505     Al1512   1.921       .  S
O1506     Al1512   1.886       .  S
O1507      C1514   1.258       .  A
O1508     Al1512   1.789       .  S
O1509      C1510   1.262       .  A
C1510      C1539   1.434       .  S
C1511      C1522   1.431       .  S
C1514      C1529   1.434       .  S
C1515      O1516   1.262       .  A
C1515      C1523   1.434       .  S
C1517      C1518   1.203       .  T
C1519      C1520   1.206       .  T
C1521      C1522   1.203       .  T
C1523      C1524   1.206       .  T
C1525      C1526   1.203       .  T
C1527      C1528   1.206       .  T
C1529      C1530   1.206       .  T
C1531      C1532   1.203       .  T
C1533      C1534   1.206       .  T
C1535      C1536   1.203       .  T
C1537      C1538   1.203       .  T
C1539      C1540   1.206       .  T
C1541      C1542   1.530       .  S
C1541      C1547   1.536       .  S
C1541      C1545   1.531       .  S
C1541      C1680   1.467       .  S
C1542      H1549   1.086       .  S
C1543      C1544   1.541   1_554  S
C1544      C1548   1.528       .  S
C1544      C1546   1.541   1_556  S
C1544      H1550   1.111       .  S
C1545      H1551   1.086       .  S
C1548      C1677   1.438       .  S
C1553      C1554   1.530       .  S
C1553      C1557   1.531       .  S
C1553      C1674   1.467       .  S
C1556      C1560   1.528       .  S
C1556      C1558   1.540       .  S
C1556      H1562   1.111       .  S
C1557      H1563   1.086       .  S
C1559      H1564   1.087       .  S
C1559      C1560   1.361       .  D
C1560      C1675   1.438       .  S
C1565      C1566   1.530       .  S
C1565      C1571   1.536       .  S
C1565      C1670   1.467       .  S
C1566      H1573   1.087       .  S
C1568      C1570   1.540   1_556  S
C1568      H1574   1.111       .  S
C1569      H1575   1.086       .  S
C1572      C1672   1.438       .  S
C1577      C1578   1.530       .  S
C1577      C1583   1.536       .  S
C1577      C1581   1.531       .  S
C1577      C1667   1.467       .  S
C1578      H1585   1.086       .  S
C1579      C1580   1.541       .  S
C1580      C1584   1.528       .  S
C1580      H1586   1.111       .  S
C1584      C1666   1.438       .  S
C1589      C1595   1.536       .  S
C1589      C1593   1.531       .  S
C1589      C1664   1.467       .  S
C1590      H1597   1.086       .  S
C1591      C1592   1.541   1_554  S
C1592      H1598   1.111       .  S
C1593      H1599   1.086       .  S
C1596      C1661   1.438       .  S
C1601      C1602   1.530       .  S
C1601      C1605   1.531       .  S
C1601      C1660   1.467       .  S
C1602      H1609   1.086       .  S
C1603      C1604   1.541       .  S
C1604      C1608   1.528       .  S
C1604      C1606   1.541       .  S
C1604      H1610   1.111       .  S
C1605      H1611   1.086       .  S
C1607      H1612   1.087       .  S
C1607      C1608   1.361       .  D
C1608      C1658   1.438       .  S
O1613      C1628   1.258       .  A
O1613     Al1621   1.891       .  S
C1614      O1624   1.256       .  A
C1614      O1615   1.260       .  A
C1614      C1665   1.431       .  S
O1615     Al1617   1.917       .  S
O1616      C1618   1.256       .  A
O1616     Al1617   1.886       .  S
Al1617     O1625   1.891       .  S
Al1617     O1627   1.921       .  S
Al1617     O1626   1.789       .  S
C1618      O1631   1.260       .  A
C1618      C1657   1.431       .  S
O1619      C1629   1.256       .  A
O1619     Al1621   1.886       .  S
O1620      C1633   1.258       .  A
O1620     Al1630   1.891       .  S
Al1621     O1634   1.920       .  S
Al1621     O1631   1.917       .  S
Al1621     O1626   1.789       .  S
O1622      C1629   1.260       .  A
O1622     Al1630   1.917       .  S
O1623      C1632   1.262       .  A
O1623     Al1630   1.921       .  S
O1624     Al1630   1.886       .  S
O1625      C1632   1.258       .  A
O1626     Al1630   1.789       .  S
O1627      C1628   1.262       .  A
C1628      C1659   1.434       .  S
C1629      C1676   1.431       .  S
C1632      C1668   1.434       .  S
C1633      O1634   1.262       .  A
C1633      C1673   1.434       .  S
O1635      C1650   1.258       .  A
O1635     Al1643   1.891       .  S
C1636      O1646   1.256       .  A
C1636      O1637   1.260       .  A
C1636      C1671   1.431       .  S
O1637     Al1639   1.917       .  S
O1638      C1640   1.256       .  A
O1638     Al1639   1.886       .  S
Al1639     O1647   1.891       .  S
Al1639     O1649   1.920       .  S
Al1639     O1648   1.789       .  S
C1640      O1653   1.261       .  A
C1640      C1678   1.431       .  S
O1641      C1651   1.256       .  A
O1641     Al1643   1.886       .  S
O1642      C1655   1.258       .  A
O1642     Al1652   1.891       .  S
Al1643     O1656   1.921       .  S
Al1643     O1653   1.917       .  S
Al1643     O1648   1.789       .  S
O1644      C1651   1.260       .  A
O1644     Al1652   1.917       .  S
O1645      C1654   1.262       .  A
O1645     Al1652   1.921       .  S
O1646     Al1652   1.886       .  S
O1647      C1654   1.258       .  A
O1648     Al1652   1.789       .  S
O1649      C1650   1.262       .  A
C1650      C1679   1.434       .  S
C1651      C1662   1.431       .  S
C1654      C1669   1.434       .  S
C1655      O1656   1.262       .  A
C1655      C1663   1.434       .  S
C1657      C1658   1.203       .  T
C1659      C1660   1.206       .  T
C1661      C1662   1.203       .  T
C1663      C1664   1.206       .  T
C1665      C1666   1.203       .  T
C1667      C1668   1.206       .  T
C1669      C1670   1.206       .  T
C1671      C1672   1.203       .  T
C1673      C1674   1.206       .  T
C1675      C1676   1.203       .  T
C1677      C1678   1.203       .  T
C1679      C1680   1.206       .  T
